scratch/importTests/Owen-Burlington.glm
clock {
timezone PST+8PDT;
stoptime '2000-01-02 00:00:00';
starttime '2000-01-01 00:00:00';
};

#set minimum_timestep=60;
#set profiler=1;
#set relax_naming_rules=1;
module generators;
module tape;
module climate;
module residential {
implicit_enduses NONE;
};

module powerflow {
solver_method FBS;
NR_iteration_limit 50;
};

object climate {
name Climate;
interpolate QUADRATIC;
tmyfile climate.tmy2;
};

object node {
phases ABCN;
name BURLINGTON;
bustype SWING;
nominal_voltage 7200.0;
};

object overhead_line {
configuration object line_configuration {
spacing object line_spacing {
distance_BC 7.0;
name 21003-LINESPACING;
distance_CN 5.0;
distance_AC 4.5;
distance_AN 4.272002;
distance_AB 2.5;
distance_BN 5.656854;
};
conductor_A object overhead_line_conductor {
resistance 0.303;
geometric_mean_radius 0.0221;
};
conductor_B object overhead_line_conductor {
resistance 0.303;
geometric_mean_radius 0.0221;
};
name 21003-LINECONFIG;
conductor_N object overhead_line_conductor {
resistance 0.303;
geometric_mean_radius 0.0221;
};
conductor_C object overhead_line_conductor {
resistance 0.303;
geometric_mean_radius 0.0221;
};
};
phases ACBN;
from BURLINGTON;
name 21003;
to node2101121003;
length 20.6237;
};

object overhead_line {
configuration object line_configuration {
spacing object line_spacing {
distance_BC 7.0;
name 21011-LINESPACING;
distance_CN 5.0;
distance_AC 4.5;
distance_AN 4.272002;
distance_AB 2.5;
distance_BN 5.656854;
};
conductor_A object overhead_line_conductor {
resistance 0.303;
geometric_mean_radius 0.0221;
};
conductor_B object overhead_line_conductor {
resistance 0.303;
geometric_mean_radius 0.0221;
};
name 21011-LINECONFIG;
conductor_N object overhead_line_conductor {
resistance 0.303;
geometric_mean_radius 0.0221;
};
conductor_C object overhead_line_conductor {
resistance 0.303;
geometric_mean_radius 0.0221;
};
};
phases ACBN;
from node2101121003;
name 21011;
to node6830421011;
length 13.0755;
};

object overhead_line {
configuration object line_configuration {
spacing object line_spacing {
distance_BC 7.0;
name 68304-LINESPACING;
distance_CN 5.0;
distance_AC 4.5;
distance_AN 4.272002;
distance_AB 2.5;
distance_BN 5.656854;
};
conductor_A object overhead_line_conductor {
resistance 0.303;
geometric_mean_radius 0.0221;
};
conductor_B object overhead_line_conductor {
resistance 0.303;
geometric_mean_radius 0.0221;
};
name 68304-LINECONFIG;
conductor_N object overhead_line_conductor {
resistance 0.303;
geometric_mean_radius 0.0221;
};
conductor_C object overhead_line_conductor {
resistance 0.303;
geometric_mean_radius 0.0221;
};
};
phases ACBN;
from node6830421011;
name 68304;
to node6830568304;
length 14.8233;
};

object overhead_line {
configuration object line_configuration {
spacing object line_spacing {
distance_BC 7.0;
name 68302-LINESPACING;
distance_CN 5.0;
distance_AC 4.5;
distance_AN 4.272002;
distance_AB 2.5;
distance_BN 5.656854;
};
conductor_A object overhead_line_conductor {
resistance 0.303;
geometric_mean_radius 0.0221;
};
conductor_B object overhead_line_conductor {
resistance 0.303;
geometric_mean_radius 0.0221;
};
name 68302-LINECONFIG;
conductor_N object overhead_line_conductor {
resistance 0.303;
geometric_mean_radius 0.0221;
};
conductor_C object overhead_line_conductor {
resistance 0.303;
geometric_mean_radius 0.0221;
};
};
phases ACBN;
from node6830421011;
name 68302;
to node6830368302;
length 10;
};

object overhead_line {
configuration object line_configuration {
spacing object line_spacing {
distance_BC 7.0;
name 68300-LINESPACING;
distance_CN 5.0;
distance_AC 4.5;
distance_AN 4.272002;
distance_AB 2.5;
distance_BN 5.656854;
};
conductor_A object overhead_line_conductor {
resistance 0.303;
geometric_mean_radius 0.0221;
};
conductor_B object overhead_line_conductor {
resistance 0.303;
geometric_mean_radius 0.0221;
};
name 68300-LINECONFIG;
conductor_N object overhead_line_conductor {
resistance 0.303;
geometric_mean_radius 0.0221;
};
conductor_C object overhead_line_conductor {
resistance 0.303;
geometric_mean_radius 0.0221;
};
};
phases ACBN;
from node6830421011;
name 68300;
to node6830168300;
length 10;
};

object overhead_line {
configuration object line_configuration {
spacing object line_spacing {
distance_BC 7.0;
name 68298-LINESPACING;
distance_CN 5.0;
distance_AC 4.5;
distance_AN 4.272002;
distance_AB 2.5;
distance_BN 5.656854;
};
conductor_A object overhead_line_conductor {
resistance 0.303;
geometric_mean_radius 0.0221;
};
conductor_B object overhead_line_conductor {
resistance 0.303;
geometric_mean_radius 0.0221;
};
name 68298-LINECONFIG;
conductor_N object overhead_line_conductor {
resistance 0.303;
geometric_mean_radius 0.0221;
};
conductor_C object overhead_line_conductor {
resistance 0.303;
geometric_mean_radius 0.0221;
};
};
phases ACBN;
from node6830421011;
name 68298;
to node6829968298;
length 19.0913;
};

object overhead_line {
configuration object line_configuration {
spacing object line_spacing {
distance_BC 7.0;
name 68299-LINESPACING;
distance_CN 5.0;
distance_AC 4.5;
distance_AN 4.272002;
distance_AB 2.5;
distance_BN 5.656854;
};
conductor_A object overhead_line_conductor {
resistance 0.303;
geometric_mean_radius 0.0221;
};
conductor_B object overhead_line_conductor {
resistance 0.303;
geometric_mean_radius 0.0221;
};
name 68299-LINECONFIG;
conductor_N object overhead_line_conductor {
resistance 0.303;
geometric_mean_radius 0.0221;
};
conductor_C object overhead_line_conductor {
resistance 0.303;
geometric_mean_radius 0.0221;
};
};
phases ACBN;
from node6829968298;
name 68299;
to nodeR118268299;
length 24.3563;
};

object fuse {
phases ACBN;
from nodeR118268299;
name R1182;
current_limit 9999.0 A;
to node20944R1182;
};

object overhead_line {
configuration object line_configuration {
spacing object line_spacing {
distance_BC 7.0;
name 20944-LINESPACING;
distance_CN 5.0;
distance_AC 4.5;
distance_AN 4.272002;
distance_AB 2.5;
distance_BN 5.656854;
};
conductor_A object overhead_line_conductor {
resistance 0.303;
geometric_mean_radius 0.0221;
};
conductor_B object overhead_line_conductor {
resistance 0.303;
geometric_mean_radius 0.0221;
};
name 20944-LINECONFIG;
conductor_N object overhead_line_conductor {
resistance 0.303;
geometric_mean_radius 0.0221;
};
conductor_C object overhead_line_conductor {
resistance 0.303;
geometric_mean_radius 0.0221;
};
};
phases ACBN;
from node20944R1182;
name 20944;
to node2083720944;
length 82.2659;
};

object overhead_line {
configuration object line_configuration {
spacing object line_spacing {
distance_BC 7.0;
name 20837-LINESPACING;
distance_CN 5.0;
distance_AC 4.5;
distance_AN 4.272002;
distance_AB 2.5;
distance_BN 5.656854;
};
conductor_A object overhead_line_conductor {
resistance 0.303;
geometric_mean_radius 0.0221;
};
conductor_B object overhead_line_conductor {
resistance 0.303;
geometric_mean_radius 0.0221;
};
name 20837-LINECONFIG;
conductor_N object overhead_line_conductor {
resistance 0.303;
geometric_mean_radius 0.0221;
};
conductor_C object overhead_line_conductor {
resistance 0.303;
geometric_mean_radius 0.0221;
};
};
phases ACBN;
from node2083720944;
name 20837;
to node2088120837;
length 87.5465;
};

object overhead_line {
configuration object line_configuration {
spacing object line_spacing {
distance_BC 7.0;
name 20881-LINESPACING;
distance_CN 5.0;
distance_AC 4.5;
distance_AN 4.272002;
distance_AB 2.5;
distance_BN 5.656854;
};
conductor_A object overhead_line_conductor {
resistance 0.303;
geometric_mean_radius 0.0221;
};
conductor_B object overhead_line_conductor {
resistance 0.303;
geometric_mean_radius 0.0221;
};
name 20881-LINECONFIG;
conductor_N object overhead_line_conductor {
resistance 0.303;
geometric_mean_radius 0.0221;
};
conductor_C object overhead_line_conductor {
resistance 0.303;
geometric_mean_radius 0.0221;
};
};
phases ACBN;
from node2088120837;
name 20881;
to node2044520881;
length 281.156;
};

object overhead_line {
configuration object line_configuration {
spacing object line_spacing {
distance_BC 7.0;
name 20445-LINESPACING;
distance_CN 5.0;
distance_AC 4.5;
distance_AN 4.272002;
distance_AB 2.5;
distance_BN 5.656854;
};
conductor_A object overhead_line_conductor {
resistance 0.303;
geometric_mean_radius 0.0221;
};
conductor_B object overhead_line_conductor {
resistance 0.303;
geometric_mean_radius 0.0221;
};
name 20445-LINECONFIG;
conductor_N object overhead_line_conductor {
resistance 0.303;
geometric_mean_radius 0.0221;
};
conductor_C object overhead_line_conductor {
resistance 0.303;
geometric_mean_radius 0.0221;
};
};
phases ACBN;
from node2044520881;
name 20445;
to node2054920445;
length 465.786;
};

object overhead_line {
configuration object line_configuration {
spacing object line_spacing {
distance_BC 7.0;
name 20549-LINESPACING;
distance_CN 5.0;
distance_AC 4.5;
distance_AN 4.272002;
distance_AB 2.5;
distance_BN 5.656854;
};
conductor_A object overhead_line_conductor {
resistance 0.303;
geometric_mean_radius 0.0221;
};
conductor_B object overhead_line_conductor {
resistance 0.303;
geometric_mean_radius 0.0221;
};
name 20549-LINECONFIG;
conductor_N object overhead_line_conductor {
resistance 0.303;
geometric_mean_radius 0.0221;
};
conductor_C object overhead_line_conductor {
resistance 0.303;
geometric_mean_radius 0.0221;
};
};
phases ACBN;
from node2054920445;
name 20549;
to node2036920549;
length 212.612;
};

object overhead_line {
configuration object line_configuration {
spacing object line_spacing {
distance_BC 7.0;
name 20369-LINESPACING;
distance_CN 5.0;
distance_AC 4.5;
distance_AN 4.272002;
distance_AB 2.5;
distance_BN 5.656854;
};
conductor_A object overhead_line_conductor {
resistance 0.303;
geometric_mean_radius 0.0221;
};
conductor_B object overhead_line_conductor {
resistance 0.303;
geometric_mean_radius 0.0221;
};
name 20369-LINECONFIG;
conductor_N object overhead_line_conductor {
resistance 0.303;
geometric_mean_radius 0.0221;
};
conductor_C object overhead_line_conductor {
resistance 0.303;
geometric_mean_radius 0.0221;
};
};
phases ACBN;
from node2036920549;
name 20369;
to node2050620369;
length 302.735;
};

object overhead_line {
configuration object line_configuration {
spacing object line_spacing {
distance_BC 7.0;
name 20506-LINESPACING;
distance_CN 5.0;
distance_AC 4.5;
distance_AN 4.272002;
distance_AB 2.5;
distance_BN 5.656854;
};
conductor_A object overhead_line_conductor {
resistance 0.303;
geometric_mean_radius 0.0221;
};
conductor_B object overhead_line_conductor {
resistance 0.303;
geometric_mean_radius 0.0221;
};
name 20506-LINECONFIG;
conductor_N object overhead_line_conductor {
resistance 0.303;
geometric_mean_radius 0.0221;
};
conductor_C object overhead_line_conductor {
resistance 0.303;
geometric_mean_radius 0.0221;
};
};
phases ACBN;
from node2050620369;
name 20506;
to node2036720506;
length 178.526;
};

object overhead_line {
configuration object line_configuration {
spacing object line_spacing {
distance_BC 7.0;
name 20367-LINESPACING;
distance_CN 5.0;
distance_AC 4.5;
distance_AN 4.272002;
distance_AB 2.5;
distance_BN 5.656854;
};
conductor_A object overhead_line_conductor {
resistance 0.303;
geometric_mean_radius 0.0221;
};
conductor_B object overhead_line_conductor {
resistance 0.303;
geometric_mean_radius 0.0221;
};
name 20367-LINECONFIG;
conductor_N object overhead_line_conductor {
resistance 0.303;
geometric_mean_radius 0.0221;
};
conductor_C object overhead_line_conductor {
resistance 0.303;
geometric_mean_radius 0.0221;
};
};
phases ACBN;
from node2036720506;
name 20367;
to nodeT6246302788020367;
length 144.103;
};

object transformer {
configuration object transformer_configuration {
powerC_rating 50 kVA;
name T62463027880-CONFIG;
shunt_impedance 10000+10000j;
secondary_voltage 120.0;
connect_type SINGLE_PHASE_CENTER_TAPPED;
impedance 0.00033+0.0022j;
primary_voltage 7200.0;
powerB_rating 50 kVA;
powerA_rating 50 kVA;
};
phases BS;
from nodeT6246302788020367;
name T62463027880;
to node62463027798T62463027880;
};

object triplex_node {
phases BS;
power_12 100;
name 62463027798;
parent node62463027798T62463027880;
nominal_voltage 120;
};

object overhead_line {
configuration object line_configuration {
spacing object line_spacing {
distance_BC 7.0;
name 20286-LINESPACING;
distance_CN 5.0;
distance_AC 4.5;
distance_AN 4.272002;
distance_AB 2.5;
distance_BN 5.656854;
};
conductor_A object overhead_line_conductor {
resistance 0.303;
geometric_mean_radius 0.0221;
};
conductor_B object overhead_line_conductor {
resistance 0.303;
geometric_mean_radius 0.0221;
};
name 20286-LINECONFIG;
conductor_N object overhead_line_conductor {
resistance 0.303;
geometric_mean_radius 0.0221;
};
conductor_C object overhead_line_conductor {
resistance 0.303;
geometric_mean_radius 0.0221;
};
};
phases ACBN;
from nodeT6246302788020367;
name 20286;
to node2024820286;
length 266.66;
};

object overhead_line {
configuration object line_configuration {
spacing object line_spacing {
distance_BC 7.0;
name 20248-LINESPACING;
distance_CN 5.0;
distance_AC 4.5;
distance_AN 4.272002;
distance_AB 2.5;
distance_BN 5.656854;
};
conductor_A object overhead_line_conductor {
resistance 0.303;
geometric_mean_radius 0.0221;
};
conductor_B object overhead_line_conductor {
resistance 0.303;
geometric_mean_radius 0.0221;
};
name 20248-LINECONFIG;
conductor_N object overhead_line_conductor {
resistance 0.303;
geometric_mean_radius 0.0221;
};
conductor_C object overhead_line_conductor {
resistance 0.303;
geometric_mean_radius 0.0221;
};
};
phases ACBN;
from node2024820286;
name 20248;
to node2014520248;
length 153.517;
};

object overhead_line {
configuration object line_configuration {
spacing object line_spacing {
distance_BC 7.0;
name 20145-LINESPACING;
distance_CN 5.0;
distance_AC 4.5;
distance_AN 4.272002;
distance_AB 2.5;
distance_BN 5.656854;
};
conductor_A object overhead_line_conductor {
resistance 0.303;
geometric_mean_radius 0.0221;
};
conductor_B object overhead_line_conductor {
resistance 0.303;
geometric_mean_radius 0.0221;
};
name 20145-LINECONFIG;
conductor_N object overhead_line_conductor {
resistance 0.303;
geometric_mean_radius 0.0221;
};
conductor_C object overhead_line_conductor {
resistance 0.303;
geometric_mean_radius 0.0221;
};
};
phases ACBN;
from node2014520248;
name 20145;
to nodeT6246302460920145;
length 357.003;
};

object overhead_line {
configuration object line_configuration {
spacing object line_spacing {
distance_BC 7.0;
name 20129-LINESPACING;
distance_CN 5.0;
distance_AC 4.5;
distance_AN 4.272002;
distance_AB 2.5;
distance_BN 5.656854;
};
conductor_A object overhead_line_conductor {
resistance 1.69;
geometric_mean_radius 0.00418;
};
conductor_B object overhead_line_conductor {
resistance 0.185900;
geometric_mean_radius 0.031300;
};
name 20129-LINECONFIG;
conductor_N object overhead_line_conductor {
resistance 1.69;
geometric_mean_radius 0.00418;
};
conductor_C object overhead_line_conductor {
resistance 0.185900;
geometric_mean_radius 0.031300;
};
};
phases AN;
from nodeT6246302460920145;
name 20129;
to nodeF894420129;
length 27.7071;
};

object fuse {
phases AN;
from nodeF894420129;
name F8944;
current_limit 9999.0 A;
to node20130F8944;
};

object overhead_line {
configuration object line_configuration {
spacing object line_spacing {
distance_BC 7.0;
name 20130-LINESPACING;
distance_CN 5.0;
distance_AC 4.5;
distance_AN 4.272002;
distance_AB 2.5;
distance_BN 5.656854;
};
conductor_A object overhead_line_conductor {
resistance 1.69;
geometric_mean_radius 0.00418;
};
conductor_B object overhead_line_conductor {
resistance 0.185900;
geometric_mean_radius 0.031300;
};
name 20130-LINECONFIG;
conductor_N object overhead_line_conductor {
resistance 1.69;
geometric_mean_radius 0.00418;
};
conductor_C object overhead_line_conductor {
resistance 0.185900;
geometric_mean_radius 0.031300;
};
};
phases AN;
from node20130F8944;
name 20130;
to nodeT6246302377520130;
length 103.665;
};

object transformer {
configuration object transformer_configuration {
powerC_rating 50 kVA;
name T62463023775-CONFIG;
shunt_impedance 10000+10000j;
secondary_voltage 120.0;
connect_type SINGLE_PHASE_CENTER_TAPPED;
impedance 0.00033+0.0022j;
primary_voltage 7200.0;
powerB_rating 50 kVA;
powerA_rating 50 kVA;
};
phases AS;
from nodeT6246302377520130;
name T62463023775;
to node62463024800T62463023775;
};

object triplex_node {
phases AS;
power_12 100;
name 62463024800;
parent node62463024800T62463023775;
nominal_voltage 120;
};

object triplex_node {
phases AS;
power_12 100;
name 62463023758;
parent node62463024800T62463023775;
nominal_voltage 120;
};

object overhead_line {
configuration object line_configuration {
spacing object line_spacing {
distance_BC 7.0;
name 20050-LINESPACING;
distance_CN 5.0;
distance_AC 4.5;
distance_AN 4.272002;
distance_AB 2.5;
distance_BN 5.656854;
};
conductor_A object overhead_line_conductor {
resistance 0.303;
geometric_mean_radius 0.0221;
};
conductor_B object overhead_line_conductor {
resistance 0.303;
geometric_mean_radius 0.0221;
};
name 20050-LINECONFIG;
conductor_N object overhead_line_conductor {
resistance 0.303;
geometric_mean_radius 0.0221;
};
conductor_C object overhead_line_conductor {
resistance 0.303;
geometric_mean_radius 0.0221;
};
};
phases ACBN;
from nodeT6246302460920145;
name 20050;
to nodeT6246302267620050;
length 287.2;
};

object transformer {
configuration object transformer_configuration {
powerC_rating 50 kVA;
name T62463022676-CONFIG;
shunt_impedance 10000+10000j;
secondary_voltage 120.0;
connect_type SINGLE_PHASE_CENTER_TAPPED;
impedance 0.00033+0.0022j;
primary_voltage 7200.0;
powerB_rating 50 kVA;
powerA_rating 50 kVA;
};
phases BS;
from nodeT6246302267620050;
name T62463022676;
to node62463022720T62463022676;
};

object triplex_node {
phases BS;
power_12 100;
name 62463022720;
parent node62463022720T62463022676;
nominal_voltage 120;
};

object overhead_line {
configuration object line_configuration {
spacing object line_spacing {
distance_BC 7.0;
name 19663-LINESPACING;
distance_CN 5.0;
distance_AC 4.5;
distance_AN 4.272002;
distance_AB 2.5;
distance_BN 5.656854;
};
conductor_A object overhead_line_conductor {
resistance 0.303;
geometric_mean_radius 0.0221;
};
conductor_B object overhead_line_conductor {
resistance 0.303;
geometric_mean_radius 0.0221;
};
name 19663-LINECONFIG;
conductor_N object overhead_line_conductor {
resistance 0.303;
geometric_mean_radius 0.0221;
};
conductor_C object overhead_line_conductor {
resistance 0.303;
geometric_mean_radius 0.0221;
};
};
phases ACBN;
from nodeT6246302267620050;
name 19663;
to nodeT6246302166319663;
length 211.226;
};

object transformer {
configuration object transformer_configuration {
powerC_rating 50 kVA;
name T62463021663-CONFIG;
shunt_impedance 10000+10000j;
secondary_voltage 120.0;
connect_type SINGLE_PHASE_CENTER_TAPPED;
impedance 0.00033+0.0022j;
primary_voltage 7200.0;
powerB_rating 50 kVA;
powerA_rating 50 kVA;
};
phases CS;
from nodeT6246302166319663;
name T62463021663;
to node62463021692T62463021663;
};

object triplex_node {
phases CS;
power_12 100;
name 62463021692;
parent node62463021692T62463021663;
nominal_voltage 120;
};

object overhead_line {
configuration object line_configuration {
spacing object line_spacing {
distance_BC 7.0;
name 19935-LINESPACING;
distance_CN 5.0;
distance_AC 4.5;
distance_AN 4.272002;
distance_AB 2.5;
distance_BN 5.656854;
};
conductor_A object overhead_line_conductor {
resistance 0.303;
geometric_mean_radius 0.0221;
};
conductor_B object overhead_line_conductor {
resistance 0.303;
geometric_mean_radius 0.0221;
};
name 19935-LINECONFIG;
conductor_N object overhead_line_conductor {
resistance 0.303;
geometric_mean_radius 0.0221;
};
conductor_C object overhead_line_conductor {
resistance 0.303;
geometric_mean_radius 0.0221;
};
};
phases ACBN;
from nodeT6246302166319663;
name 19935;
to nodeT6246302067019935;
length 194.654;
};

object transformer {
configuration object transformer_configuration {
powerC_rating 50 kVA;
name T62463020670-CONFIG;
shunt_impedance 10000+10000j;
secondary_voltage 120.0;
connect_type SINGLE_PHASE_CENTER_TAPPED;
impedance 0.00033+0.0022j;
primary_voltage 7200.0;
powerB_rating 50 kVA;
powerA_rating 50 kVA;
};
phases BS;
from nodeT6246302067019935;
name T62463020670;
to node62463020586T62463020670;
};

object triplex_node {
phases BS;
power_12 100;
name 62463020586;
parent node62463020586T62463020670;
nominal_voltage 120;
};

object overhead_line {
configuration object line_configuration {
spacing object line_spacing {
distance_BC 7.0;
name 19597-LINESPACING;
distance_CN 5.0;
distance_AC 4.5;
distance_AN 4.272002;
distance_AB 2.5;
distance_BN 5.656854;
};
conductor_A object overhead_line_conductor {
resistance 0.303;
geometric_mean_radius 0.0221;
};
conductor_B object overhead_line_conductor {
resistance 0.303;
geometric_mean_radius 0.0221;
};
name 19597-LINECONFIG;
conductor_N object overhead_line_conductor {
resistance 0.303;
geometric_mean_radius 0.0221;
};
conductor_C object overhead_line_conductor {
resistance 0.303;
geometric_mean_radius 0.0221;
};
};
phases ACBN;
from nodeT6246302067019935;
name 19597;
to node1985219597;
length 222.044;
};

object overhead_line {
configuration object line_configuration {
spacing object line_spacing {
distance_BC 7.0;
name 19852-LINESPACING;
distance_CN 5.0;
distance_AC 4.5;
distance_AN 4.272002;
distance_AB 2.5;
distance_BN 5.656854;
};
conductor_A object overhead_line_conductor {
resistance 0.303;
geometric_mean_radius 0.0221;
};
conductor_B object overhead_line_conductor {
resistance 0.303;
geometric_mean_radius 0.0221;
};
name 19852-LINECONFIG;
conductor_N object overhead_line_conductor {
resistance 0.303;
geometric_mean_radius 0.0221;
};
conductor_C object overhead_line_conductor {
resistance 0.303;
geometric_mean_radius 0.0221;
};
};
phases ACBN;
from node1985219597;
name 19852;
to nodeT6246301941419852;
length 273.49;
};

object transformer {
configuration object transformer_configuration {
powerC_rating 50 kVA;
name T62463019414-CONFIG;
shunt_impedance 10000+10000j;
secondary_voltage 120.0;
connect_type SINGLE_PHASE_CENTER_TAPPED;
impedance 0.00033+0.0022j;
primary_voltage 7200.0;
powerB_rating 50 kVA;
powerA_rating 50 kVA;
};
phases AS;
from nodeT6246301941419852;
name T62463019414;
to node62463019437T62463019414;
};

object triplex_node {
phases AS;
power_12 100;
name 62463019437;
parent node62463019437T62463019414;
nominal_voltage 120;
};

object overhead_line {
configuration object line_configuration {
spacing object line_spacing {
distance_BC 7.0;
name 19850-LINESPACING;
distance_CN 5.0;
distance_AC 4.5;
distance_AN 4.272002;
distance_AB 2.5;
distance_BN 5.656854;
};
conductor_A object overhead_line_conductor {
resistance 0.185900;
geometric_mean_radius 0.031300;
};
conductor_B object overhead_line_conductor {
resistance 0.185900;
geometric_mean_radius 0.031300;
};
name 19850-LINECONFIG;
conductor_N object overhead_line_conductor {
resistance 1.69;
geometric_mean_radius 0.00418;
};
conductor_C object overhead_line_conductor {
resistance 1.69;
geometric_mean_radius 0.00418;
};
};
phases CN;
from nodeT6246301941419852;
name 19850;
to nodeF757319850;
length 26.5061;
};

object fuse {
phases CN;
from nodeF757319850;
name F7573;
current_limit 9999.0 A;
to node19851F7573;
};

object overhead_line {
configuration object line_configuration {
spacing object line_spacing {
distance_BC 7.0;
name 19851-LINESPACING;
distance_CN 5.0;
distance_AC 4.5;
distance_AN 4.272002;
distance_AB 2.5;
distance_BN 5.656854;
};
conductor_A object overhead_line_conductor {
resistance 0.185900;
geometric_mean_radius 0.031300;
};
conductor_B object overhead_line_conductor {
resistance 0.185900;
geometric_mean_radius 0.031300;
};
name 19851-LINECONFIG;
conductor_N object overhead_line_conductor {
resistance 1.69;
geometric_mean_radius 0.00418;
};
conductor_C object overhead_line_conductor {
resistance 1.69;
geometric_mean_radius 0.00418;
};
};
phases CN;
from node19851F7573;
name 19851;
to nodeT6246301946719851;
length 80.8867;
};

object transformer {
configuration object transformer_configuration {
powerC_rating 50 kVA;
name T62463019467-CONFIG;
shunt_impedance 10000+10000j;
secondary_voltage 120.0;
connect_type SINGLE_PHASE_CENTER_TAPPED;
impedance 0.00033+0.0022j;
primary_voltage 7200.0;
powerB_rating 50 kVA;
powerA_rating 50 kVA;
};
phases CS;
from nodeT6246301946719851;
name T62463019467;
to node62463019498T62463019467;
};

object triplex_node {
phases CS;
power_12 1519.04;
name 62463019498;
parent node62463019498T62463019467;
nominal_voltage 120;
};

object overhead_line {
configuration object line_configuration {
spacing object line_spacing {
distance_BC 7.0;
name 19848-LINESPACING;
distance_CN 5.0;
distance_AC 4.5;
distance_AN 4.272002;
distance_AB 2.5;
distance_BN 5.656854;
};
conductor_A object overhead_line_conductor {
resistance 0.185900;
geometric_mean_radius 0.031300;
};
conductor_B object overhead_line_conductor {
resistance 0.185900;
geometric_mean_radius 0.031300;
};
name 19848-LINECONFIG;
conductor_N object overhead_line_conductor {
resistance 1.69;
geometric_mean_radius 0.00418;
};
conductor_C object overhead_line_conductor {
resistance 1.69;
geometric_mean_radius 0.00418;
};
};
phases CN;
from nodeT6246301941419852;
name 19848;
to nodeF794419848;
length 28.1181;
};

object fuse {
phases CN;
from nodeF794419848;
name F7944;
current_limit 9999.0 A;
to node19849F7944;
};

object overhead_line {
configuration object line_configuration {
spacing object line_spacing {
distance_BC 7.0;
name 19849-LINESPACING;
distance_CN 5.0;
distance_AC 4.5;
distance_AN 4.272002;
distance_AB 2.5;
distance_BN 5.656854;
};
conductor_A object overhead_line_conductor {
resistance 0.185900;
geometric_mean_radius 0.031300;
};
conductor_B object overhead_line_conductor {
resistance 0.185900;
geometric_mean_radius 0.031300;
};
name 19849-LINECONFIG;
conductor_N object overhead_line_conductor {
resistance 1.69;
geometric_mean_radius 0.00418;
};
conductor_C object overhead_line_conductor {
resistance 1.69;
geometric_mean_radius 0.00418;
};
};
phases CN;
from node19849F7944;
name 19849;
to node1959219849;
length 241.85;
};

object overhead_line {
configuration object line_configuration {
spacing object line_spacing {
distance_BC 7.0;
name 19592-LINESPACING;
distance_CN 5.0;
distance_AC 4.5;
distance_AN 4.272002;
distance_AB 2.5;
distance_BN 5.656854;
};
conductor_A object overhead_line_conductor {
resistance 0.185900;
geometric_mean_radius 0.031300;
};
conductor_B object overhead_line_conductor {
resistance 0.185900;
geometric_mean_radius 0.031300;
};
name 19592-LINECONFIG;
conductor_N object overhead_line_conductor {
resistance 1.69;
geometric_mean_radius 0.00418;
};
conductor_C object overhead_line_conductor {
resistance 1.69;
geometric_mean_radius 0.00418;
};
};
phases CN;
from node1959219849;
name 19592;
to node1996419592;
length 320.096;
};

object overhead_line {
configuration object line_configuration {
spacing object line_spacing {
distance_BC 7.0;
name 19964-LINESPACING;
distance_CN 5.0;
distance_AC 4.5;
distance_AN 4.272002;
distance_AB 2.5;
distance_BN 5.656854;
};
conductor_A object overhead_line_conductor {
resistance 0.185900;
geometric_mean_radius 0.031300;
};
conductor_B object overhead_line_conductor {
resistance 0.185900;
geometric_mean_radius 0.031300;
};
name 19964-LINECONFIG;
conductor_N object overhead_line_conductor {
resistance 1.69;
geometric_mean_radius 0.00418;
};
conductor_C object overhead_line_conductor {
resistance 1.69;
geometric_mean_radius 0.00418;
};
};
phases CN;
from node1996419592;
name 19964;
to nodeT6246302228919964;
length 319.967;
};

object transformer {
configuration object transformer_configuration {
powerC_rating 50 kVA;
name T62463022289-CONFIG;
shunt_impedance 10000+10000j;
secondary_voltage 120.0;
connect_type SINGLE_PHASE_CENTER_TAPPED;
impedance 0.00033+0.0022j;
primary_voltage 7200.0;
powerB_rating 50 kVA;
powerA_rating 50 kVA;
};
phases CS;
from nodeT6246302228919964;
name T62463022289;
to node62463022298T62463022289;
};

object triplex_node {
phases CS;
power_12 1655.3;
name 62463022298;
parent node62463022298T62463022289;
nominal_voltage 120;
};

object overhead_line {
configuration object line_configuration {
spacing object line_spacing {
distance_BC 7.0;
name 20061-LINESPACING;
distance_CN 5.0;
distance_AC 4.5;
distance_AN 4.272002;
distance_AB 2.5;
distance_BN 5.656854;
};
conductor_A object overhead_line_conductor {
resistance 0.185900;
geometric_mean_radius 0.031300;
};
conductor_B object overhead_line_conductor {
resistance 0.185900;
geometric_mean_radius 0.031300;
};
name 20061-LINECONFIG;
conductor_N object overhead_line_conductor {
resistance 1.69;
geometric_mean_radius 0.00418;
};
conductor_C object overhead_line_conductor {
resistance 1.69;
geometric_mean_radius 0.00418;
};
};
phases CN;
from nodeT6246302228919964;
name 20061;
to node2013220061;
length 203.088;
};

object overhead_line {
configuration object line_configuration {
spacing object line_spacing {
distance_BC 7.0;
name 20132-LINESPACING;
distance_CN 5.0;
distance_AC 4.5;
distance_AN 4.272002;
distance_AB 2.5;
distance_BN 5.656854;
};
conductor_A object overhead_line_conductor {
resistance 0.185900;
geometric_mean_radius 0.031300;
};
conductor_B object overhead_line_conductor {
resistance 0.185900;
geometric_mean_radius 0.031300;
};
name 20132-LINECONFIG;
conductor_N object overhead_line_conductor {
resistance 1.69;
geometric_mean_radius 0.00418;
};
conductor_C object overhead_line_conductor {
resistance 1.69;
geometric_mean_radius 0.00418;
};
};
phases CN;
from node2013220061;
name 20132;
to nodeT6246302425720132;
length 158.947;
};

object transformer {
configuration object transformer_configuration {
powerC_rating 50 kVA;
name T62463024257-CONFIG;
shunt_impedance 10000+10000j;
secondary_voltage 120.0;
connect_type SINGLE_PHASE_CENTER_TAPPED;
impedance 0.00033+0.0022j;
primary_voltage 7200.0;
powerB_rating 50 kVA;
powerA_rating 50 kVA;
};
phases CS;
from nodeT6246302425720132;
name T62463024257;
to node62463025237T62463024257;
};

object triplex_node {
phases CS;
power_12 10133.7;
name 62463025237;
parent node62463025237T62463024257;
nominal_voltage 120;
};

object overhead_line {
configuration object line_configuration {
spacing object line_spacing {
distance_BC 7.0;
name 19837-LINESPACING;
distance_CN 5.0;
distance_AC 4.5;
distance_AN 4.272002;
distance_AB 2.5;
distance_BN 5.656854;
};
conductor_A object overhead_line_conductor {
resistance 1.69;
geometric_mean_radius 0.00418;
};
conductor_B object overhead_line_conductor {
resistance 0.185900;
geometric_mean_radius 0.031300;
};
name 19837-LINECONFIG;
conductor_N object overhead_line_conductor {
resistance 1.69;
geometric_mean_radius 0.00418;
};
conductor_C object overhead_line_conductor {
resistance 0.185900;
geometric_mean_radius 0.031300;
};
};
phases AN;
from nodeT6246301941419852;
name 19837;
to nodeF758219837;
length 24.9997;
};

object fuse {
phases AN;
from nodeF758219837;
name F7582;
current_limit 9999.0 A;
to node19770F7582;
};

object overhead_line {
configuration object line_configuration {
spacing object line_spacing {
distance_BC 7.0;
name 19770-LINESPACING;
distance_CN 5.0;
distance_AC 4.5;
distance_AN 4.272002;
distance_AB 2.5;
distance_BN 5.656854;
};
conductor_A object overhead_line_conductor {
resistance 1.69;
geometric_mean_radius 0.00418;
};
conductor_B object overhead_line_conductor {
resistance 0.185900;
geometric_mean_radius 0.031300;
};
name 19770-LINECONFIG;
conductor_N object overhead_line_conductor {
resistance 1.69;
geometric_mean_radius 0.00418;
};
conductor_C object overhead_line_conductor {
resistance 0.185900;
geometric_mean_radius 0.031300;
};
};
phases AN;
from node19770F7582;
name 19770;
to nodeT6246301747919770;
length 260.872;
};

object transformer {
configuration object transformer_configuration {
powerC_rating 50 kVA;
name T62463017479-CONFIG;
shunt_impedance 10000+10000j;
secondary_voltage 120.0;
connect_type SINGLE_PHASE_CENTER_TAPPED;
impedance 0.00033+0.0022j;
primary_voltage 7200.0;
powerB_rating 50 kVA;
powerA_rating 50 kVA;
};
phases AS;
from nodeT6246301747919770;
name T62463017479;
to node62463018503T62463017479;
};

object triplex_node {
phases AS;
power_12 100;
name 62463018503;
parent node62463018503T62463017479;
nominal_voltage 120;
};

object overhead_line {
configuration object line_configuration {
spacing object line_spacing {
distance_BC 7.0;
name 19750-LINESPACING;
distance_CN 5.0;
distance_AC 4.5;
distance_AN 4.272002;
distance_AB 2.5;
distance_BN 5.656854;
};
conductor_A object overhead_line_conductor {
resistance 1.69;
geometric_mean_radius 0.00418;
};
conductor_B object overhead_line_conductor {
resistance 0.185900;
geometric_mean_radius 0.031300;
};
name 19750-LINECONFIG;
conductor_N object overhead_line_conductor {
resistance 1.69;
geometric_mean_radius 0.00418;
};
conductor_C object overhead_line_conductor {
resistance 0.185900;
geometric_mean_radius 0.031300;
};
};
phases AN;
from nodeT6246301747919770;
name 19750;
to nodeT6246301745119750;
length 174.815;
};

object transformer {
configuration object transformer_configuration {
powerC_rating 50 kVA;
name T62463017451-CONFIG;
shunt_impedance 10000+10000j;
secondary_voltage 120.0;
connect_type SINGLE_PHASE_CENTER_TAPPED;
impedance 0.00033+0.0022j;
primary_voltage 7200.0;
powerB_rating 50 kVA;
powerA_rating 50 kVA;
};
phases AS;
from nodeT6246301745119750;
name T62463017451;
to node62463017349T62463017451;
};

object triplex_node {
phases AS;
power_12 100;
name 62463017349;
parent node62463017349T62463017451;
nominal_voltage 120;
};

object triplex_node {
phases AS;
power_12 100;
name 62463017481;
parent node62463017349T62463017451;
nominal_voltage 120;
};

object overhead_line {
configuration object line_configuration {
spacing object line_spacing {
distance_BC 7.0;
name 19583-LINESPACING;
distance_CN 5.0;
distance_AC 4.5;
distance_AN 4.272002;
distance_AB 2.5;
distance_BN 5.656854;
};
conductor_A object overhead_line_conductor {
resistance 1.69;
geometric_mean_radius 0.00418;
};
conductor_B object overhead_line_conductor {
resistance 0.185900;
geometric_mean_radius 0.031300;
};
name 19583-LINECONFIG;
conductor_N object overhead_line_conductor {
resistance 1.69;
geometric_mean_radius 0.00418;
};
conductor_C object overhead_line_conductor {
resistance 0.185900;
geometric_mean_radius 0.031300;
};
};
phases AN;
from nodeT6246301747919770;
name 19583;
to nodeT6246301555719583;
length 467.84;
};

object transformer {
configuration object transformer_configuration {
powerC_rating 50 kVA;
name T62463015557-CONFIG;
shunt_impedance 10000+10000j;
secondary_voltage 120.0;
connect_type SINGLE_PHASE_CENTER_TAPPED;
impedance 0.00033+0.0022j;
primary_voltage 7200.0;
powerB_rating 50 kVA;
powerA_rating 50 kVA;
};
phases AS;
from nodeT6246301555719583;
name T62463015557;
to node62463016405T62463015557;
};

object triplex_node {
phases AS;
power_12 100;
name 62463016405;
parent node62463016405T62463015557;
nominal_voltage 120;
};

object triplex_node {
phases AS;
power_12 100;
name 62463014593;
parent node62463016405T62463015557;
nominal_voltage 120;
};

object overhead_line {
configuration object line_configuration {
spacing object line_spacing {
distance_BC 7.0;
name 19342-LINESPACING;
distance_CN 5.0;
distance_AC 4.5;
distance_AN 4.272002;
distance_AB 2.5;
distance_BN 5.656854;
};
conductor_A object overhead_line_conductor {
resistance 1.69;
geometric_mean_radius 0.00418;
};
conductor_B object overhead_line_conductor {
resistance 0.185900;
geometric_mean_radius 0.031300;
};
name 19342-LINECONFIG;
conductor_N object overhead_line_conductor {
resistance 1.69;
geometric_mean_radius 0.00418;
};
conductor_C object overhead_line_conductor {
resistance 0.185900;
geometric_mean_radius 0.031300;
};
};
phases AN;
from nodeT6246301555719583;
name 19342;
to nodeT6246301357619342;
length 372.94;
};

object transformer {
configuration object transformer_configuration {
powerC_rating 50 kVA;
name T62463013576-CONFIG;
shunt_impedance 10000+10000j;
secondary_voltage 120.0;
connect_type SINGLE_PHASE_CENTER_TAPPED;
impedance 0.00033+0.0022j;
primary_voltage 7200.0;
powerB_rating 50 kVA;
powerA_rating 50 kVA;
};
phases AS;
from nodeT6246301357619342;
name T62463013576;
to node62463013691T62463013576;
};

object triplex_node {
phases AS;
power_12 100;
name 62463013691;
parent node62463013691T62463013576;
nominal_voltage 120;
};

object overhead_line {
configuration object line_configuration {
spacing object line_spacing {
distance_BC 7.0;
name 19399-LINESPACING;
distance_CN 5.0;
distance_AC 4.5;
distance_AN 4.272002;
distance_AB 2.5;
distance_BN 5.656854;
};
conductor_A object overhead_line_conductor {
resistance 1.69;
geometric_mean_radius 0.00418;
};
conductor_B object overhead_line_conductor {
resistance 0.185900;
geometric_mean_radius 0.031300;
};
name 19399-LINECONFIG;
conductor_N object overhead_line_conductor {
resistance 1.69;
geometric_mean_radius 0.00418;
};
conductor_C object overhead_line_conductor {
resistance 0.185900;
geometric_mean_radius 0.031300;
};
};
phases AN;
from nodeT6246301357619342;
name 19399;
to nodeT6246301254019399;
length 288.845;
};

object transformer {
configuration object transformer_configuration {
powerC_rating 50 kVA;
name T62463012540-CONFIG;
shunt_impedance 10000+10000j;
secondary_voltage 120.0;
connect_type SINGLE_PHASE_CENTER_TAPPED;
impedance 0.00033+0.0022j;
primary_voltage 7200.0;
powerB_rating 50 kVA;
powerA_rating 50 kVA;
};
phases AS;
from nodeT6246301254019399;
name T62463012540;
to node62463012543T62463012540;
};

object triplex_node {
phases AS;
power_12 100;
name 62463012543;
parent node62463012543T62463012540;
nominal_voltage 120;
};

object overhead_line {
configuration object line_configuration {
spacing object line_spacing {
distance_BC 7.0;
name 19584-LINESPACING;
distance_CN 5.0;
distance_AC 4.5;
distance_AN 4.272002;
distance_AB 2.5;
distance_BN 5.656854;
};
conductor_A object overhead_line_conductor {
resistance 1.69;
geometric_mean_radius 0.00418;
};
conductor_B object overhead_line_conductor {
resistance 0.185900;
geometric_mean_radius 0.031300;
};
name 19584-LINECONFIG;
conductor_N object overhead_line_conductor {
resistance 1.69;
geometric_mean_radius 0.00418;
};
conductor_C object overhead_line_conductor {
resistance 0.185900;
geometric_mean_radius 0.031300;
};
};
phases AN;
from nodeT6246301555719583;
name 19584;
to node1948319584;
length 235.1;
};

object overhead_line {
configuration object line_configuration {
spacing object line_spacing {
distance_BC 7.0;
name 19483-LINESPACING;
distance_CN 5.0;
distance_AC 4.5;
distance_AN 4.272002;
distance_AB 2.5;
distance_BN 5.656854;
};
conductor_A object overhead_line_conductor {
resistance 1.69;
geometric_mean_radius 0.00418;
};
conductor_B object overhead_line_conductor {
resistance 0.185900;
geometric_mean_radius 0.031300;
};
name 19483-LINECONFIG;
conductor_N object overhead_line_conductor {
resistance 1.69;
geometric_mean_radius 0.00418;
};
conductor_C object overhead_line_conductor {
resistance 0.185900;
geometric_mean_radius 0.031300;
};
};
phases AN;
from node1948319584;
name 19483;
to nodeT6246301473419483;
length 316.703;
};

object transformer {
configuration object transformer_configuration {
powerC_rating 50 kVA;
name T62463014734-CONFIG;
shunt_impedance 10000+10000j;
secondary_voltage 120.0;
connect_type SINGLE_PHASE_CENTER_TAPPED;
impedance 0.00033+0.0022j;
primary_voltage 7200.0;
powerB_rating 50 kVA;
powerA_rating 50 kVA;
};
phases AS;
from nodeT6246301473419483;
name T62463014734;
to node62463014628T62463014734;
};

object triplex_node {
phases AS;
power_12 100;
name 62463014628;
parent node62463014628T62463014734;
nominal_voltage 120;
};

object triplex_node {
phases AS;
power_12 100;
name 62463014757;
parent node62463014628T62463014734;
nominal_voltage 120;
};

object overhead_line {
configuration object line_configuration {
spacing object line_spacing {
distance_BC 7.0;
name 19474-LINESPACING;
distance_CN 5.0;
distance_AC 4.5;
distance_AN 4.272002;
distance_AB 2.5;
distance_BN 5.656854;
};
conductor_A object overhead_line_conductor {
resistance 1.69;
geometric_mean_radius 0.00418;
};
conductor_B object overhead_line_conductor {
resistance 0.185900;
geometric_mean_radius 0.031300;
};
name 19474-LINECONFIG;
conductor_N object overhead_line_conductor {
resistance 1.69;
geometric_mean_radius 0.00418;
};
conductor_C object overhead_line_conductor {
resistance 0.185900;
geometric_mean_radius 0.031300;
};
};
phases AN;
from nodeT6246301473419483;
name 19474;
to nodeT6246301373719474;
length 201.012;
};

object transformer {
configuration object transformer_configuration {
powerC_rating 50 kVA;
name T62463013737-CONFIG;
shunt_impedance 10000+10000j;
secondary_voltage 120.0;
connect_type SINGLE_PHASE_CENTER_TAPPED;
impedance 0.00033+0.0022j;
primary_voltage 7200.0;
powerB_rating 50 kVA;
powerA_rating 50 kVA;
};
phases AS;
from nodeT6246301373719474;
name T62463013737;
to node62463013707T62463013737;
};

object triplex_node {
phases AS;
power_12 100;
name 62463013707;
parent node62463013707T62463013737;
nominal_voltage 120;
};

object overhead_line {
configuration object line_configuration {
spacing object line_spacing {
distance_BC 7.0;
name 18573-LINESPACING;
distance_CN 5.0;
distance_AC 4.5;
distance_AN 4.272002;
distance_AB 2.5;
distance_BN 5.656854;
};
conductor_A object overhead_line_conductor {
resistance 1.69;
geometric_mean_radius 0.00418;
};
conductor_B object overhead_line_conductor {
resistance 0.185900;
geometric_mean_radius 0.031300;
};
name 18573-LINECONFIG;
conductor_N object overhead_line_conductor {
resistance 1.69;
geometric_mean_radius 0.00418;
};
conductor_C object overhead_line_conductor {
resistance 0.185900;
geometric_mean_radius 0.031300;
};
};
phases AN;
from node1948319584;
name 18573;
to nodeT6246301683718573;
length 383.447;
};

object transformer {
configuration object transformer_configuration {
powerC_rating 50 kVA;
name T62463016837-CONFIG;
shunt_impedance 10000+10000j;
secondary_voltage 120.0;
connect_type SINGLE_PHASE_CENTER_TAPPED;
impedance 0.00033+0.0022j;
primary_voltage 7200.0;
powerB_rating 50 kVA;
powerA_rating 50 kVA;
};
phases AS;
from nodeT6246301683718573;
name T62463016837;
to node62463016900T62463016837;
};

object triplex_node {
phases AS;
power_12 100;
name 62463016900;
parent node62463016900T62463016837;
nominal_voltage 120;
};

object overhead_line {
configuration object line_configuration {
spacing object line_spacing {
distance_BC 7.0;
name 19688-LINESPACING;
distance_CN 5.0;
distance_AC 4.5;
distance_AN 4.272002;
distance_AB 2.5;
distance_BN 5.656854;
};
conductor_A object overhead_line_conductor {
resistance 1.69;
geometric_mean_radius 0.00418;
};
conductor_B object overhead_line_conductor {
resistance 0.185900;
geometric_mean_radius 0.031300;
};
name 19688-LINECONFIG;
conductor_N object overhead_line_conductor {
resistance 1.69;
geometric_mean_radius 0.00418;
};
conductor_C object overhead_line_conductor {
resistance 0.185900;
geometric_mean_radius 0.031300;
};
};
phases AN;
from nodeT6246301683718573;
name 19688;
to nodeT6247419602319688;
length 321.462;
};

object transformer {
configuration object transformer_configuration {
powerC_rating 50 kVA;
name T62474196023-CONFIG;
shunt_impedance 10000+10000j;
secondary_voltage 120.0;
connect_type SINGLE_PHASE_CENTER_TAPPED;
impedance 0.00033+0.0022j;
primary_voltage 7200.0;
powerB_rating 50 kVA;
powerA_rating 50 kVA;
};
phases AS;
from nodeT6247419602319688;
name T62474196023;
to node62474195011T62474196023;
};

object triplex_node {
phases AS;
power_12 100;
name 62474195011;
parent node62474195011T62474196023;
nominal_voltage 120;
};

object triplex_node {
phases AS;
power_12 100;
name 62463016996;
parent node62474195011T62474196023;
nominal_voltage 120;
};

object overhead_line {
configuration object line_configuration {
spacing object line_spacing {
distance_BC 7.0;
name 19558-LINESPACING;
distance_CN 5.0;
distance_AC 4.5;
distance_AN 4.272002;
distance_AB 2.5;
distance_BN 5.656854;
};
conductor_A object overhead_line_conductor {
resistance 1.69;
geometric_mean_radius 0.00418;
};
conductor_B object overhead_line_conductor {
resistance 0.185900;
geometric_mean_radius 0.031300;
};
name 19558-LINECONFIG;
conductor_N object overhead_line_conductor {
resistance 1.69;
geometric_mean_radius 0.00418;
};
conductor_C object overhead_line_conductor {
resistance 0.185900;
geometric_mean_radius 0.031300;
};
};
phases AN;
from nodeT6247419602319688;
name 19558;
to nodeT6247419610319558;
length 211.036;
};

object transformer {
configuration object transformer_configuration {
powerC_rating 50 kVA;
name T62474196103-CONFIG;
shunt_impedance 10000+10000j;
secondary_voltage 120.0;
connect_type SINGLE_PHASE_CENTER_TAPPED;
impedance 0.00033+0.0022j;
primary_voltage 7200.0;
powerB_rating 50 kVA;
powerA_rating 50 kVA;
};
phases AS;
from nodeT6247419610319558;
name T62474196103;
to node62474195151T62474196103;
};

object triplex_node {
phases AS;
power_12 100;
name 62474195151;
parent node62474195151T62474196103;
nominal_voltage 120;
};

object overhead_line {
configuration object line_configuration {
spacing object line_spacing {
distance_BC 7.0;
name 19560-LINESPACING;
distance_CN 5.0;
distance_AC 4.5;
distance_AN 4.272002;
distance_AB 2.5;
distance_BN 5.656854;
};
conductor_A object overhead_line_conductor {
resistance 1.69;
geometric_mean_radius 0.00418;
};
conductor_B object overhead_line_conductor {
resistance 0.185900;
geometric_mean_radius 0.031300;
};
name 19560-LINECONFIG;
conductor_N object overhead_line_conductor {
resistance 1.69;
geometric_mean_radius 0.00418;
};
conductor_C object overhead_line_conductor {
resistance 0.185900;
geometric_mean_radius 0.031300;
};
};
phases AN;
from nodeT6247419610319558;
name 19560;
to nodeT6247419621319560;
length 202.261;
};

object transformer {
configuration object transformer_configuration {
powerC_rating 50 kVA;
name T62474196213-CONFIG;
shunt_impedance 10000+10000j;
secondary_voltage 120.0;
connect_type SINGLE_PHASE_CENTER_TAPPED;
impedance 0.00033+0.0022j;
primary_voltage 7200.0;
powerB_rating 50 kVA;
powerA_rating 50 kVA;
};
phases AS;
from nodeT6247419621319560;
name T62474196213;
to node62474195268T62474196213;
};

object triplex_node {
phases AS;
power_12 100;
name 62474195268;
parent node62474195268T62474196213;
nominal_voltage 120;
};

object triplex_node {
phases AS;
power_12 100;
name 62474195267;
parent node62474195268T62474196213;
nominal_voltage 120;
};

object overhead_line {
configuration object line_configuration {
spacing object line_spacing {
distance_BC 7.0;
name 19683-LINESPACING;
distance_CN 5.0;
distance_AC 4.5;
distance_AN 4.272002;
distance_AB 2.5;
distance_BN 5.656854;
};
conductor_A object overhead_line_conductor {
resistance 1.69;
geometric_mean_radius 0.00418;
};
conductor_B object overhead_line_conductor {
resistance 0.185900;
geometric_mean_radius 0.031300;
};
name 19683-LINECONFIG;
conductor_N object overhead_line_conductor {
resistance 1.69;
geometric_mean_radius 0.00418;
};
conductor_C object overhead_line_conductor {
resistance 0.185900;
geometric_mean_radius 0.031300;
};
};
phases AN;
from nodeT6247419621319560;
name 19683;
to nodeT6247419635319683;
length 217.697;
};

object transformer {
configuration object transformer_configuration {
powerC_rating 50 kVA;
name T62474196353-CONFIG;
shunt_impedance 10000+10000j;
secondary_voltage 120.0;
connect_type SINGLE_PHASE_CENTER_TAPPED;
impedance 0.00033+0.0022j;
primary_voltage 7200.0;
powerB_rating 50 kVA;
powerA_rating 50 kVA;
};
phases AS;
from nodeT6247419635319683;
name T62474196353;
to node62474196319T62474196353;
};

object triplex_node {
phases AS;
power_12 100;
name 62474196319;
parent node62474196319T62474196353;
nominal_voltage 120;
};

object triplex_node {
phases AS;
power_12 100;
name 62474197334;
parent node62474196319T62474196353;
nominal_voltage 120;
};

object overhead_line {
configuration object line_configuration {
spacing object line_spacing {
distance_BC 7.0;
name 19682-LINESPACING;
distance_CN 5.0;
distance_AC 4.5;
distance_AN 4.272002;
distance_AB 2.5;
distance_BN 5.656854;
};
conductor_A object overhead_line_conductor {
resistance 1.69;
geometric_mean_radius 0.00418;
};
conductor_B object overhead_line_conductor {
resistance 0.185900;
geometric_mean_radius 0.031300;
};
name 19682-LINECONFIG;
conductor_N object overhead_line_conductor {
resistance 1.69;
geometric_mean_radius 0.00418;
};
conductor_C object overhead_line_conductor {
resistance 0.185900;
geometric_mean_radius 0.031300;
};
};
phases AN;
from nodeT6247419621319560;
name 19682;
to nodeT6247419721519682;
length 198.705;
};

object transformer {
configuration object transformer_configuration {
powerC_rating 50 kVA;
name T62474197215-CONFIG;
shunt_impedance 10000+10000j;
secondary_voltage 120.0;
connect_type SINGLE_PHASE_CENTER_TAPPED;
impedance 0.00033+0.0022j;
primary_voltage 7200.0;
powerB_rating 50 kVA;
powerA_rating 50 kVA;
};
phases AS;
from nodeT6247419721519682;
name T62474197215;
to node62474197221T62474197215;
};

object triplex_node {
phases AS;
power_12 100;
name 62474197221;
parent node62474197221T62474197215;
nominal_voltage 120;
};

object overhead_line {
configuration object line_configuration {
spacing object line_spacing {
distance_BC 7.0;
name 19559-LINESPACING;
distance_CN 5.0;
distance_AC 4.5;
distance_AN 4.272002;
distance_AB 2.5;
distance_BN 5.656854;
};
conductor_A object overhead_line_conductor {
resistance 1.69;
geometric_mean_radius 0.00418;
};
conductor_B object overhead_line_conductor {
resistance 0.185900;
geometric_mean_radius 0.031300;
};
name 19559-LINECONFIG;
conductor_N object overhead_line_conductor {
resistance 1.69;
geometric_mean_radius 0.00418;
};
conductor_C object overhead_line_conductor {
resistance 0.185900;
geometric_mean_radius 0.031300;
};
};
phases AN;
from nodeT6247419610319558;
name 19559;
to nodeT6247419710519559;
length 202.235;
};

object transformer {
configuration object transformer_configuration {
powerC_rating 50 kVA;
name T62474197105-CONFIG;
shunt_impedance 10000+10000j;
secondary_voltage 120.0;
connect_type SINGLE_PHASE_CENTER_TAPPED;
impedance 0.00033+0.0022j;
primary_voltage 7200.0;
powerB_rating 50 kVA;
powerA_rating 50 kVA;
};
phases AS;
from nodeT6247419710519559;
name T62474197105;
to node62474196191T62474197105;
};

object triplex_node {
phases AS;
power_12 100;
name 62474196191;
parent node62474196191T62474197105;
nominal_voltage 120;
};

object overhead_line {
configuration object line_configuration {
spacing object line_spacing {
distance_BC 7.0;
name 18572-LINESPACING;
distance_CN 5.0;
distance_AC 4.5;
distance_AN 4.272002;
distance_AB 2.5;
distance_BN 5.656854;
};
conductor_A object overhead_line_conductor {
resistance 1.69;
geometric_mean_radius 0.00418;
};
conductor_B object overhead_line_conductor {
resistance 0.185900;
geometric_mean_radius 0.031300;
};
name 18572-LINECONFIG;
conductor_N object overhead_line_conductor {
resistance 1.69;
geometric_mean_radius 0.00418;
};
conductor_C object overhead_line_conductor {
resistance 0.185900;
geometric_mean_radius 0.031300;
};
};
phases AN;
from node1948319584;
name 18572;
to nodeT6246301663418572;
length 141.214;
};

object transformer {
configuration object transformer_configuration {
powerC_rating 50 kVA;
name T62463016634-CONFIG;
shunt_impedance 10000+10000j;
secondary_voltage 120.0;
connect_type SINGLE_PHASE_CENTER_TAPPED;
impedance 0.00033+0.0022j;
primary_voltage 7200.0;
powerB_rating 50 kVA;
powerA_rating 50 kVA;
};
phases AS;
from nodeT6246301663418572;
name T62463016634;
to node62463016539T62463016634;
};

object triplex_node {
phases AS;
power_12 100;
name 62463016539;
parent node62463016539T62463016634;
nominal_voltage 120;
};

object overhead_line {
configuration object line_configuration {
spacing object line_spacing {
distance_BC 7.0;
name 19815-LINESPACING;
distance_CN 5.0;
distance_AC 4.5;
distance_AN 4.272002;
distance_AB 2.5;
distance_BN 5.656854;
};
conductor_A object overhead_line_conductor {
resistance 0.303;
geometric_mean_radius 0.0221;
};
conductor_B object overhead_line_conductor {
resistance 0.303;
geometric_mean_radius 0.0221;
};
name 19815-LINECONFIG;
conductor_N object overhead_line_conductor {
resistance 0.303;
geometric_mean_radius 0.0221;
};
conductor_C object overhead_line_conductor {
resistance 0.303;
geometric_mean_radius 0.0221;
};
};
phases ACBN;
from nodeT6246301941419852;
name 19815;
to nodeT6246301824919815;
length 335.444;
};

object transformer {
configuration object transformer_configuration {
powerC_rating 50 kVA;
name T62463018249-CONFIG;
shunt_impedance 10000+10000j;
secondary_voltage 120.0;
connect_type SINGLE_PHASE_CENTER_TAPPED;
impedance 0.00033+0.0022j;
primary_voltage 7200.0;
powerB_rating 50 kVA;
powerA_rating 50 kVA;
};
phases BS;
from nodeT6246301824919815;
name T62463018249;
to node62463018228T62463018249;
};

object triplex_node {
phases BS;
power_12 100;
name 62463018228;
parent node62463018228T62463018249;
nominal_voltage 120;
};

object overhead_line {
configuration object line_configuration {
spacing object line_spacing {
distance_BC 7.0;
name 19816-LINESPACING;
distance_CN 5.0;
distance_AC 4.5;
distance_AN 4.272002;
distance_AB 2.5;
distance_BN 5.656854;
};
conductor_A object overhead_line_conductor {
resistance 0.185900;
geometric_mean_radius 0.031300;
};
conductor_B object overhead_line_conductor {
resistance 0.185900;
geometric_mean_radius 0.031300;
};
name 19816-LINECONFIG;
conductor_N object overhead_line_conductor {
resistance 1.69;
geometric_mean_radius 0.00418;
};
conductor_C object overhead_line_conductor {
resistance 1.69;
geometric_mean_radius 0.00418;
};
};
phases CN;
from nodeT6246301824919815;
name 19816;
to nodeF581519816;
length 26.6007;
};

object fuse {
phases CN;
from nodeF581519816;
name F5815;
current_limit 9999.0 A;
to node19563F5815;
};

object overhead_line {
configuration object line_configuration {
spacing object line_spacing {
distance_BC 7.0;
name 19563-LINESPACING;
distance_CN 5.0;
distance_AC 4.5;
distance_AN 4.272002;
distance_AB 2.5;
distance_BN 5.656854;
};
conductor_A object overhead_line_conductor {
resistance 0.185900;
geometric_mean_radius 0.031300;
};
conductor_B object overhead_line_conductor {
resistance 0.185900;
geometric_mean_radius 0.031300;
};
name 19563-LINECONFIG;
conductor_N object overhead_line_conductor {
resistance 1.69;
geometric_mean_radius 0.00418;
};
conductor_C object overhead_line_conductor {
resistance 1.69;
geometric_mean_radius 0.00418;
};
};
phases CN;
from node19563F5815;
name 19563;
to nodeT6246301925319563;
length 243.066;
};

object transformer {
configuration object transformer_configuration {
powerC_rating 50 kVA;
name T62463019253-CONFIG;
shunt_impedance 10000+10000j;
secondary_voltage 120.0;
connect_type SINGLE_PHASE_CENTER_TAPPED;
impedance 0.00033+0.0022j;
primary_voltage 7200.0;
powerB_rating 50 kVA;
powerA_rating 50 kVA;
};
phases CS;
from nodeT6246301925319563;
name T62463019253;
to node62463019285T62463019253;
};

object triplex_node {
phases CS;
power_12 4534.42;
name 62463019285;
parent node62463019285T62463019253;
nominal_voltage 120;
};

object overhead_line {
configuration object line_configuration {
spacing object line_spacing {
distance_BC 7.0;
name 19237-LINESPACING;
distance_CN 5.0;
distance_AC 4.5;
distance_AN 4.272002;
distance_AB 2.5;
distance_BN 5.656854;
};
conductor_A object overhead_line_conductor {
resistance 0.185900;
geometric_mean_radius 0.031300;
};
conductor_B object overhead_line_conductor {
resistance 0.185900;
geometric_mean_radius 0.031300;
};
name 19237-LINECONFIG;
conductor_N object overhead_line_conductor {
resistance 1.69;
geometric_mean_radius 0.00418;
};
conductor_C object overhead_line_conductor {
resistance 1.69;
geometric_mean_radius 0.00418;
};
};
phases CN;
from nodeT6246301925319563;
name 19237;
to nodeT6246302120019237;
length 305.297;
};

object transformer {
configuration object transformer_configuration {
powerC_rating 50 kVA;
name T62463021200-CONFIG;
shunt_impedance 10000+10000j;
secondary_voltage 120.0;
connect_type SINGLE_PHASE_CENTER_TAPPED;
impedance 0.00033+0.0022j;
primary_voltage 7200.0;
powerB_rating 50 kVA;
powerA_rating 50 kVA;
};
phases CS;
from nodeT6246302120019237;
name T62463021200;
to node62463021167T62463021200;
};

object triplex_node {
phases CS;
power_12 3757.23;
name 62463021167;
parent node62463021167T62463021200;
nominal_voltage 120;
};

object overhead_line {
configuration object line_configuration {
spacing object line_spacing {
distance_BC 7.0;
name 19765-LINESPACING;
distance_CN 5.0;
distance_AC 4.5;
distance_AN 4.272002;
distance_AB 2.5;
distance_BN 5.656854;
};
conductor_A object overhead_line_conductor {
resistance 0.303;
geometric_mean_radius 0.0221;
};
conductor_B object overhead_line_conductor {
resistance 0.303;
geometric_mean_radius 0.0221;
};
name 19765-LINECONFIG;
conductor_N object overhead_line_conductor {
resistance 0.303;
geometric_mean_radius 0.0221;
};
conductor_C object overhead_line_conductor {
resistance 0.303;
geometric_mean_radius 0.0221;
};
};
phases ACBN;
from nodeT6246301824919815;
name 19765;
to node1974819765;
length 386.822;
};

object overhead_line {
configuration object line_configuration {
spacing object line_spacing {
distance_BC 7.0;
name 19748-LINESPACING;
distance_CN 5.0;
distance_AC 4.5;
distance_AN 4.272002;
distance_AB 2.5;
distance_BN 5.656854;
};
conductor_A object overhead_line_conductor {
resistance 0.303;
geometric_mean_radius 0.0221;
};
conductor_B object overhead_line_conductor {
resistance 0.303;
geometric_mean_radius 0.0221;
};
name 19748-LINECONFIG;
conductor_N object overhead_line_conductor {
resistance 0.303;
geometric_mean_radius 0.0221;
};
conductor_C object overhead_line_conductor {
resistance 0.303;
geometric_mean_radius 0.0221;
};
};
phases ACBN;
from node1974819765;
name 19748;
to nodeT6246301704519748;
length 137.975;
};

object transformer {
configuration object transformer_configuration {
powerC_rating 50 kVA;
name T62463017045-CONFIG;
shunt_impedance 10000+10000j;
secondary_voltage 120.0;
connect_type SINGLE_PHASE_CENTER_TAPPED;
impedance 0.00033+0.0022j;
primary_voltage 7200.0;
powerB_rating 50 kVA;
powerA_rating 50 kVA;
};
phases BS;
from nodeT6246301704519748;
name T62463017045;
to node62463017062T62463017045;
};

object triplex_node {
phases BS;
power_12 100;
name 62463017062;
parent node62463017062T62463017045;
nominal_voltage 120;
};

object overhead_line {
configuration object line_configuration {
spacing object line_spacing {
distance_BC 7.0;
name 19740-LINESPACING;
distance_CN 5.0;
distance_AC 4.5;
distance_AN 4.272002;
distance_AB 2.5;
distance_BN 5.656854;
};
conductor_A object overhead_line_conductor {
resistance 1.69;
geometric_mean_radius 0.00418;
};
conductor_B object overhead_line_conductor {
resistance 0.185900;
geometric_mean_radius 0.031300;
};
name 19740-LINECONFIG;
conductor_N object overhead_line_conductor {
resistance 1.69;
geometric_mean_radius 0.00418;
};
conductor_C object overhead_line_conductor {
resistance 0.185900;
geometric_mean_radius 0.031300;
};
};
phases AN;
from nodeT6246301704519748;
name 19740;
to nodeF758519740;
length 25.0001;
};

object fuse {
phases AN;
from nodeF758519740;
name F7585;
current_limit 9999.0 A;
to node19714F7585;
};

object overhead_line {
configuration object line_configuration {
spacing object line_spacing {
distance_BC 7.0;
name 19714-LINESPACING;
distance_CN 5.0;
distance_AC 4.5;
distance_AN 4.272002;
distance_AB 2.5;
distance_BN 5.656854;
};
conductor_A object overhead_line_conductor {
resistance 1.69;
geometric_mean_radius 0.00418;
};
conductor_B object overhead_line_conductor {
resistance 0.185900;
geometric_mean_radius 0.031300;
};
name 19714-LINECONFIG;
conductor_N object overhead_line_conductor {
resistance 1.69;
geometric_mean_radius 0.00418;
};
conductor_C object overhead_line_conductor {
resistance 0.185900;
geometric_mean_radius 0.031300;
};
};
phases AN;
from node19714F7585;
name 19714;
to nodeT6246301607719714;
length 118.283;
};

object transformer {
...