scratch/importTests/Owen-Burlington.VOLTS.csv
# Owen-Burlington.VOLTS.csv run at 2000-01-01 00:00:00 PST on 1010 nodes
node_name,voltA_real,voltA_imag,voltB_real,voltB_imag,voltC_real,voltC_imag
BURLINGTON,2400.000000,0.000000,-1200.000000,-2078.460969,-1200.000000,2078.460969
62463027798,-1.#IND00,-1.#IND00,-1.#IND00,-1.#IND00,-1.#IND00,-1.#IND00
62463024800,-1.#IND00,-1.#IND00,-1.#IND00,-1.#IND00,-1.#IND00,-1.#IND00
62463023758,-1.#IND00,-1.#IND00,-1.#IND00,-1.#IND00,-1.#IND00,-1.#IND00
62463022720,-1.#IND00,-1.#IND00,-1.#IND00,-1.#IND00,-1.#IND00,-1.#IND00
62463021692,-1.#IND00,-1.#IND00,-1.#IND00,-1.#IND00,-1.#IND00,-1.#IND00
62463020586,-1.#IND00,-1.#IND00,-1.#IND00,-1.#IND00,-1.#IND00,-1.#IND00
62463019437,-1.#IND00,-1.#IND00,-1.#IND00,-1.#IND00,-1.#IND00,-1.#IND00
62463019498,-1.#IND00,-1.#IND00,-1.#IND00,-1.#IND00,-1.#IND00,-1.#IND00
62463022298,-1.#IND00,-1.#IND00,-1.#IND00,-1.#IND00,-1.#IND00,-1.#IND00
62463025237,-1.#IND00,-1.#IND00,-1.#IND00,-1.#IND00,-1.#IND00,-1.#IND00
62463018503,-1.#IND00,-1.#IND00,-1.#IND00,-1.#IND00,-1.#IND00,-1.#IND00
62463017349,-1.#IND00,-1.#IND00,-1.#IND00,-1.#IND00,-1.#IND00,-1.#IND00
62463017481,-1.#IND00,-1.#IND00,-1.#IND00,-1.#IND00,-1.#IND00,-1.#IND00
62463016405,-1.#IND00,-1.#IND00,-1.#IND00,-1.#IND00,-1.#IND00,-1.#IND00
62463014593,-1.#IND00,-1.#IND00,-1.#IND00,-1.#IND00,-1.#IND00,-1.#IND00
62463013691,-1.#IND00,-1.#IND00,-1.#IND00,-1.#IND00,-1.#IND00,-1.#IND00
62463012543,-1.#IND00,-1.#IND00,-1.#IND00,-1.#IND00,-1.#IND00,-1.#IND00
62463014628,-1.#IND00,-1.#IND00,-1.#IND00,-1.#IND00,-1.#IND00,-1.#IND00
62463014757,-1.#IND00,-1.#IND00,-1.#IND00,-1.#IND00,-1.#IND00,-1.#IND00
62463013707,-1.#IND00,-1.#IND00,-1.#IND00,-1.#IND00,-1.#IND00,-1.#IND00
62463016900,-1.#IND00,-1.#IND00,-1.#IND00,-1.#IND00,-1.#IND00,-1.#IND00
62474195011,-1.#IND00,-1.#IND00,-1.#IND00,-1.#IND00,-1.#IND00,-1.#IND00
62463016996,-1.#IND00,-1.#IND00,-1.#IND00,-1.#IND00,-1.#IND00,-1.#IND00
62474195151,-1.#IND00,-1.#IND00,-1.#IND00,-1.#IND00,-1.#IND00,-1.#IND00
62474195268,-1.#IND00,-1.#IND00,-1.#IND00,-1.#IND00,-1.#IND00,-1.#IND00
62474195267,-1.#IND00,-1.#IND00,-1.#IND00,-1.#IND00,-1.#IND00,-1.#IND00
62474196319,-1.#IND00,-1.#IND00,-1.#IND00,-1.#IND00,-1.#IND00,-1.#IND00
62474197334,-1.#IND00,-1.#IND00,-1.#IND00,-1.#IND00,-1.#IND00,-1.#IND00
62474197221,-1.#IND00,-1.#IND00,-1.#IND00,-1.#IND00,-1.#IND00,-1.#IND00
62474196191,-1.#IND00,-1.#IND00,-1.#IND00,-1.#IND00,-1.#IND00,-1.#IND00
62463016539,-1.#IND00,-1.#IND00,-1.#IND00,-1.#IND00,-1.#IND00,-1.#IND00
62463018228,-1.#IND00,-1.#IND00,-1.#IND00,-1.#IND00,-1.#IND00,-1.#IND00
62463019285,-1.#IND00,-1.#IND00,-1.#IND00,-1.#IND00,-1.#IND00,-1.#IND00
62463021167,-1.#IND00,-1.#IND00,-1.#IND00,-1.#IND00,-1.#IND00,-1.#IND00
62463017062,-1.#IND00,-1.#IND00,-1.#IND00,-1.#IND00,-1.#IND00,-1.#IND00
62463016038,-1.#IND00,-1.#IND00,-1.#IND00,-1.#IND00,-1.#IND00,-1.#IND00
62463074975,-1.#IND00,-1.#IND00,-1.#IND00,-1.#IND00,-1.#IND00,-1.#IND00
62463016251,-1.#IND00,-1.#IND00,-1.#IND00,-1.#IND00,-1.#IND00,-1.#IND00
62463015244,-1.#IND00,-1.#IND00,-1.#IND00,-1.#IND00,-1.#IND00,-1.#IND00
62463078953,-1.#IND00,-1.#IND00,-1.#IND00,-1.#IND00,-1.#IND00,-1.#IND00
62463076992,-1.#IND00,-1.#IND00,-1.#IND00,-1.#IND00,-1.#IND00,-1.#IND00
62463076991,-1.#IND00,-1.#IND00,-1.#IND00,-1.#IND00,-1.#IND00,-1.#IND00
62463076869,-1.#IND00,-1.#IND00,-1.#IND00,-1.#IND00,-1.#IND00,-1.#IND00
62463074798,-1.#IND00,-1.#IND00,-1.#IND00,-1.#IND00,-1.#IND00,-1.#IND00
62463074872,-1.#IND00,-1.#IND00,-1.#IND00,-1.#IND00,-1.#IND00,-1.#IND00
62463074197,-1.#IND00,-1.#IND00,-1.#IND00,-1.#IND00,-1.#IND00,-1.#IND00
62463073088,-1.#IND00,-1.#IND00,-1.#IND00,-1.#IND00,-1.#IND00,-1.#IND00
62463074161,-1.#IND00,-1.#IND00,-1.#IND00,-1.#IND00,-1.#IND00,-1.#IND00
62463079175,-1.#IND00,-1.#IND00,-1.#IND00,-1.#IND00,-1.#IND00,-1.#IND00
62463139865,-1.#IND00,-1.#IND00,-1.#IND00,-1.#IND00,-1.#IND00,-1.#IND00
62463075194,-1.#IND00,-1.#IND00,-1.#IND00,-1.#IND00,-1.#IND00,-1.#IND00
62463133906,-1.#IND00,-1.#IND00,-1.#IND00,-1.#IND00,-1.#IND00,-1.#IND00
62463130850,-1.#IND00,-1.#IND00,-1.#IND00,-1.#IND00,-1.#IND00,-1.#IND00
62463129089,-1.#IND00,-1.#IND00,-1.#IND00,-1.#IND00,-1.#IND00,-1.#IND00
62463129140,-1.#IND00,-1.#IND00,-1.#IND00,-1.#IND00,-1.#IND00,-1.#IND00
62463129029,-1.#IND00,-1.#IND00,-1.#IND00,-1.#IND00,-1.#IND00,-1.#IND00
62463132202,-1.#IND00,-1.#IND00,-1.#IND00,-1.#IND00,-1.#IND00,-1.#IND00
62463133761,-1.#IND00,-1.#IND00,-1.#IND00,-1.#IND00,-1.#IND00,-1.#IND00
62463134548,-1.#IND00,-1.#IND00,-1.#IND00,-1.#IND00,-1.#IND00,-1.#IND00
62463135417,-1.#IND00,-1.#IND00,-1.#IND00,-1.#IND00,-1.#IND00,-1.#IND00
62463132895,-1.#IND00,-1.#IND00,-1.#IND00,-1.#IND00,-1.#IND00,-1.#IND00
62463132482,-1.#IND00,-1.#IND00,-1.#IND00,-1.#IND00,-1.#IND00,-1.#IND00
62463133009,-1.#IND00,-1.#IND00,-1.#IND00,-1.#IND00,-1.#IND00,-1.#IND00
62463188749,-1.#IND00,-1.#IND00,-1.#IND00,-1.#IND00,-1.#IND00,-1.#IND00
62463188841,-1.#IND00,-1.#IND00,-1.#IND00,-1.#IND00,-1.#IND00,-1.#IND00
62463190800,-1.#IND00,-1.#IND00,-1.#IND00,-1.#IND00,-1.#IND00,-1.#IND00
62463190694,-1.#IND00,-1.#IND00,-1.#IND00,-1.#IND00,-1.#IND00,-1.#IND00
62463193561,-1.#IND00,-1.#IND00,-1.#IND00,-1.#IND00,-1.#IND00,-1.#IND00
62463188901,-1.#IND00,-1.#IND00,-1.#IND00,-1.#IND00,-1.#IND00,-1.#IND00
62463186718,-1.#IND00,-1.#IND00,-1.#IND00,-1.#IND00,-1.#IND00,-1.#IND00
62463186767,-1.#IND00,-1.#IND00,-1.#IND00,-1.#IND00,-1.#IND00,-1.#IND00
62463186398,-1.#IND00,-1.#IND00,-1.#IND00,-1.#IND00,-1.#IND00,-1.#IND00
62463186406,-1.#IND00,-1.#IND00,-1.#IND00,-1.#IND00,-1.#IND00,-1.#IND00
62463185287,-1.#IND00,-1.#IND00,-1.#IND00,-1.#IND00,-1.#IND00,-1.#IND00
62463186691,-1.#IND00,-1.#IND00,-1.#IND00,-1.#IND00,-1.#IND00,-1.#IND00
62463189387,-1.#IND00,-1.#IND00,-1.#IND00,-1.#IND00,-1.#IND00,-1.#IND00
62463128092,-1.#IND00,-1.#IND00,-1.#IND00,-1.#IND00,-1.#IND00,-1.#IND00
62463124065,-1.#IND00,-1.#IND00,-1.#IND00,-1.#IND00,-1.#IND00,-1.#IND00
62463123162,-1.#IND00,-1.#IND00,-1.#IND00,-1.#IND00,-1.#IND00,-1.#IND00
62463123039,-1.#IND00,-1.#IND00,-1.#IND00,-1.#IND00,-1.#IND00,-1.#IND00
62463121169,-1.#IND00,-1.#IND00,-1.#IND00,-1.#IND00,-1.#IND00,-1.#IND00
62462178343,-1.#IND00,-1.#IND00,-1.#IND00,-1.#IND00,-1.#IND00,-1.#IND00
62462238928,-1.#IND00,-1.#IND00,-1.#IND00,-1.#IND00,-1.#IND00,-1.#IND00
62462238910,-1.#IND00,-1.#IND00,-1.#IND00,-1.#IND00,-1.#IND00,-1.#IND00
62462237962,-1.#IND00,-1.#IND00,-1.#IND00,-1.#IND00,-1.#IND00,-1.#IND00
62462236984,-1.#IND00,-1.#IND00,-1.#IND00,-1.#IND00,-1.#IND00,-1.#IND00
62463000348,-1.#IND00,-1.#IND00,-1.#IND00,-1.#IND00,-1.#IND00,-1.#IND00
62462059368,-1.#IND00,-1.#IND00,-1.#IND00,-1.#IND00,-1.#IND00,-1.#IND00
62462059542,-1.#IND00,-1.#IND00,-1.#IND00,-1.#IND00,-1.#IND00,-1.#IND00
62462059675,-1.#IND00,-1.#IND00,-1.#IND00,-1.#IND00,-1.#IND00,-1.#IND00
62462059694,-1.#IND00,-1.#IND00,-1.#IND00,-1.#IND00,-1.#IND00,-1.#IND00
62462059538,-1.#IND00,-1.#IND00,-1.#IND00,-1.#IND00,-1.#IND00,-1.#IND00
62463001627,-1.#IND00,-1.#IND00,-1.#IND00,-1.#IND00,-1.#IND00,-1.#IND00
62462059793,-1.#IND00,-1.#IND00,-1.#IND00,-1.#IND00,-1.#IND00,-1.#IND00
62462059308,-1.#IND00,-1.#IND00,-1.#IND00,-1.#IND00,-1.#IND00,-1.#IND00
62474182051,-1.#IND00,-1.#IND00,-1.#IND00,-1.#IND00,-1.#IND00,-1.#IND00
62474182023,-1.#IND00,-1.#IND00,-1.#IND00,-1.#IND00,-1.#IND00,-1.#IND00
62474182070,-1.#IND00,-1.#IND00,-1.#IND00,-1.#IND00,-1.#IND00,-1.#IND00
62474181058,-1.#IND00,-1.#IND00,-1.#IND00,-1.#IND00,-1.#IND00,-1.#IND00
62474181087,-1.#IND00,-1.#IND00,-1.#IND00,-1.#IND00,-1.#IND00,-1.#IND00
62474181049,-1.#IND00,-1.#IND00,-1.#IND00,-1.#IND00,-1.#IND00,-1.#IND00
62463000855,-1.#IND00,-1.#IND00,-1.#IND00,-1.#IND00,-1.#IND00,-1.#IND00
62463001804,-1.#IND00,-1.#IND00,-1.#IND00,-1.#IND00,-1.#IND00,-1.#IND00
62463001887,-1.#IND00,-1.#IND00,-1.#IND00,-1.#IND00,-1.#IND00,-1.#IND00
62463000882,-1.#IND00,-1.#IND00,-1.#IND00,-1.#IND00,-1.#IND00,-1.#IND00
62463001801,-1.#IND00,-1.#IND00,-1.#IND00,-1.#IND00,-1.#IND00,-1.#IND00
62463001766,-1.#IND00,-1.#IND00,-1.#IND00,-1.#IND00,-1.#IND00,-1.#IND00
62463001747,-1.#IND00,-1.#IND00,-1.#IND00,-1.#IND00,-1.#IND00,-1.#IND00
62473239194,-1.#IND00,-1.#IND00,-1.#IND00,-1.#IND00,-1.#IND00,-1.#IND00
62474180125,-1.#IND00,-1.#IND00,-1.#IND00,-1.#IND00,-1.#IND00,-1.#IND00
62473238040,-1.#IND00,-1.#IND00,-1.#IND00,-1.#IND00,-1.#IND00,-1.#IND00
62473238011,-1.#IND00,-1.#IND00,-1.#IND00,-1.#IND00,-1.#IND00,-1.#IND00
62473238221,-1.#IND00,-1.#IND00,-1.#IND00,-1.#IND00,-1.#IND00,-1.#IND00
62473238255,-1.#IND00,-1.#IND00,-1.#IND00,-1.#IND00,-1.#IND00,-1.#IND00
62462058915,-1.#IND00,-1.#IND00,-1.#IND00,-1.#IND00,-1.#IND00,-1.#IND00
62462058744,-1.#IND00,-1.#IND00,-1.#IND00,-1.#IND00,-1.#IND00,-1.#IND00
62462058715,-1.#IND00,-1.#IND00,-1.#IND00,-1.#IND00,-1.#IND00,-1.#IND00
62462057655,-1.#IND00,-1.#IND00,-1.#IND00,-1.#IND00,-1.#IND00,-1.#IND00
62462058558,-1.#IND00,-1.#IND00,-1.#IND00,-1.#IND00,-1.#IND00,-1.#IND00
62462058536,-1.#IND00,-1.#IND00,-1.#IND00,-1.#IND00,-1.#IND00,-1.#IND00
62462057439,-1.#IND00,-1.#IND00,-1.#IND00,-1.#IND00,-1.#IND00,-1.#IND00
62462057437,-1.#IND00,-1.#IND00,-1.#IND00,-1.#IND00,-1.#IND00,-1.#IND00
62462057863,-1.#IND00,-1.#IND00,-1.#IND00,-1.#IND00,-1.#IND00,-1.#IND00
62473239131,-1.#IND00,-1.#IND00,-1.#IND00,-1.#IND00,-1.#IND00,-1.#IND00
62463002869,-1.#IND00,-1.#IND00,-1.#IND00,-1.#IND00,-1.#IND00,-1.#IND00
62463002888,-1.#IND00,-1.#IND00,-1.#IND00,-1.#IND00,-1.#IND00,-1.#IND00
62463003936,-1.#IND00,-1.#IND00,-1.#IND00,-1.#IND00,-1.#IND00,-1.#IND00
62474182499,-1.#IND00,-1.#IND00,-1.#IND00,-1.#IND00,-1.#IND00,-1.#IND00
62474182422,-1.#IND00,-1.#IND00,-1.#IND00,-1.#IND00,-1.#IND00,-1.#IND00
62474182452,-1.#IND00,-1.#IND00,-1.#IND00,-1.#IND00,-1.#IND00,-1.#IND00
62474181469,-1.#IND00,-1.#IND00,-1.#IND00,-1.#IND00,-1.#IND00,-1.#IND00
62474181379,-1.#IND00,-1.#IND00,-1.#IND00,-1.#IND00,-1.#IND00,-1.#IND00
62474181480,-1.#IND00,-1.#IND00,-1.#IND00,-1.#IND00,-1.#IND00,-1.#IND00
62474181436,-1.#IND00,-1.#IND00,-1.#IND00,-1.#IND00,-1.#IND00,-1.#IND00
62474181415,-1.#IND00,-1.#IND00,-1.#IND00,-1.#IND00,-1.#IND00,-1.#IND00
62474181335,-1.#IND00,-1.#IND00,-1.#IND00,-1.#IND00,-1.#IND00,-1.#IND00
62474180472,-1.#IND00,-1.#IND00,-1.#IND00,-1.#IND00,-1.#IND00,-1.#IND00
62474181313,-1.#IND00,-1.#IND00,-1.#IND00,-1.#IND00,-1.#IND00,-1.#IND00
62474180317,-1.#IND00,-1.#IND00,-1.#IND00,-1.#IND00,-1.#IND00,-1.#IND00
62474181623,-1.#IND00,-1.#IND00,-1.#IND00,-1.#IND00,-1.#IND00,-1.#IND00
62474182629,-1.#IND00,-1.#IND00,-1.#IND00,-1.#IND00,-1.#IND00,-1.#IND00
62462172377,-1.#IND00,-1.#IND00,-1.#IND00,-1.#IND00,-1.#IND00,-1.#IND00
62462172359,-1.#IND00,-1.#IND00,-1.#IND00,-1.#IND00,-1.#IND00,-1.#IND00
62462169230,-1.#IND00,-1.#IND00,-1.#IND00,-1.#IND00,-1.#IND00,-1.#IND00
62462168493,-1.#IND00,-1.#IND00,-1.#IND00,-1.#IND00,-1.#IND00,-1.#IND00
62462163909,-1.#IND00,-1.#IND00,-1.#IND00,-1.#IND00,-1.#IND00,-1.#IND00
62462102070,-1.#IND00,-1.#IND00,-1.#IND00,-1.#IND00,-1.#IND00,-1.#IND00
62462091125,-1.#IND00,-1.#IND00,-1.#IND00,-1.#IND00,-1.#IND00,-1.#IND00
62462101209,-1.#IND00,-1.#IND00,-1.#IND00,-1.#IND00,-1.#IND00,-1.#IND00
62462100205,-1.#IND00,-1.#IND00,-1.#IND00,-1.#IND00,-1.#IND00,-1.#IND00
62462100389,-1.#IND00,-1.#IND00,-1.#IND00,-1.#IND00,-1.#IND00,-1.#IND00
62462166430,-1.#IND00,-1.#IND00,-1.#IND00,-1.#IND00,-1.#IND00,-1.#IND00
62462169487,-1.#IND00,-1.#IND00,-1.#IND00,-1.#IND00,-1.#IND00,-1.#IND00
62462169591,-1.#IND00,-1.#IND00,-1.#IND00,-1.#IND00,-1.#IND00,-1.#IND00
62462170679,-1.#IND00,-1.#IND00,-1.#IND00,-1.#IND00,-1.#IND00,-1.#IND00
62462110050,-1.#IND00,-1.#IND00,-1.#IND00,-1.#IND00,-1.#IND00,-1.#IND00
62462110074,-1.#IND00,-1.#IND00,-1.#IND00,-1.#IND00,-1.#IND00,-1.#IND00
62462168810,-1.#IND00,-1.#IND00,-1.#IND00,-1.#IND00,-1.#IND00,-1.#IND00
62462168853,-1.#IND00,-1.#IND00,-1.#IND00,-1.#IND00,-1.#IND00,-1.#IND00
CAP134,-1.#IND00,-1.#IND00,-1.#IND00,-1.#IND00,-1.#IND00,-1.#IND00
62462173273,-1.#IND00,-1.#IND00,-1.#IND00,-1.#IND00,-1.#IND00,-1.#IND00
62462223811,-1.#IND00,-1.#IND00,-1.#IND00,-1.#IND00,-1.#IND00,-1.#IND00
62462221747,-1.#IND00,-1.#IND00,-1.#IND00,-1.#IND00,-1.#IND00,-1.#IND00
62462222990,-1.#IND00,-1.#IND00,-1.#IND00,-1.#IND00,-1.#IND00,-1.#IND00
62462222906,-1.#IND00,-1.#IND00,-1.#IND00,-1.#IND00,-1.#IND00,-1.#IND00
62462222928,-1.#IND00,-1.#IND00,-1.#IND00,-1.#IND00,-1.#IND00,-1.#IND00
62462222940,-1.#IND00,-1.#IND00,-1.#IND00,-1.#IND00,-1.#IND00,-1.#IND00
62462221940,-1.#IND00,-1.#IND00,-1.#IND00,-1.#IND00,-1.#IND00,-1.#IND00
62462222991,-1.#IND00,-1.#IND00,-1.#IND00,-1.#IND00,-1.#IND00,-1.#IND00
62462222898,-1.#IND00,-1.#IND00,-1.#IND00,-1.#IND00,-1.#IND00,-1.#IND00
62462161131,-1.#IND00,-1.#IND00,-1.#IND00,-1.#IND00,-1.#IND00,-1.#IND00
62462161064,-1.#IND00,-1.#IND00,-1.#IND00,-1.#IND00,-1.#IND00,-1.#IND00
62462161074,-1.#IND00,-1.#IND00,-1.#IND00,-1.#IND00,-1.#IND00,-1.#IND00
62462161015,-1.#IND00,-1.#IND00,-1.#IND00,-1.#IND00,-1.#IND00,-1.#IND00
62462161141,-1.#IND00,-1.#IND00,-1.#IND00,-1.#IND00,-1.#IND00,-1.#IND00
62462221928,-1.#IND00,-1.#IND00,-1.#IND00,-1.#IND00,-1.#IND00,-1.#IND00
62462219692,-1.#IND00,-1.#IND00,-1.#IND00,-1.#IND00,-1.#IND00,-1.#IND00
62462219587,-1.#IND00,-1.#IND00,-1.#IND00,-1.#IND00,-1.#IND00,-1.#IND00
62462219593,-1.#IND00,-1.#IND00,-1.#IND00,-1.#IND00,-1.#IND00,-1.#IND00
62462220524,-1.#IND00,-1.#IND00,-1.#IND00,-1.#IND00,-1.#IND00,-1.#IND00
62462219940,-1.#IND00,-1.#IND00,-1.#IND00,-1.#IND00,-1.#IND00,-1.#IND00
62462219723,-1.#IND00,-1.#IND00,-1.#IND00,-1.#IND00,-1.#IND00,-1.#IND00
62462217843,-1.#IND00,-1.#IND00,-1.#IND00,-1.#IND00,-1.#IND00,-1.#IND00
62462158002,-1.#IND00,-1.#IND00,-1.#IND00,-1.#IND00,-1.#IND00,-1.#IND00
62462157070,-1.#IND00,-1.#IND00,-1.#IND00,-1.#IND00,-1.#IND00,-1.#IND00
62462157141,-1.#IND00,-1.#IND00,-1.#IND00,-1.#IND00,-1.#IND00,-1.#IND00
62462155030,-1.#IND00,-1.#IND00,-1.#IND00,-1.#IND00,-1.#IND00,-1.#IND00
62462154072,-1.#IND00,-1.#IND00,-1.#IND00,-1.#IND00,-1.#IND00,-1.#IND00
62462156170,-1.#IND00,-1.#IND00,-1.#IND00,-1.#IND00,-1.#IND00,-1.#IND00
62462156240,-1.#IND00,-1.#IND00,-1.#IND00,-1.#IND00,-1.#IND00,-1.#IND00
62462154130,-1.#IND00,-1.#IND00,-1.#IND00,-1.#IND00,-1.#IND00,-1.#IND00
62462153231,-1.#IND00,-1.#IND00,-1.#IND00,-1.#IND00,-1.#IND00,-1.#IND00
62462215977,-1.#IND00,-1.#IND00,-1.#IND00,-1.#IND00,-1.#IND00,-1.#IND00
62462225969,-1.#IND00,-1.#IND00,-1.#IND00,-1.#IND00,-1.#IND00,-1.#IND00
62462174083,-1.#IND00,-1.#IND00,-1.#IND00,-1.#IND00,-1.#IND00,-1.#IND00
62462175009,-1.#IND00,-1.#IND00,-1.#IND00,-1.#IND00,-1.#IND00,-1.#IND00
62462234942,-1.#IND00,-1.#IND00,-1.#IND00,-1.#IND00,-1.#IND00,-1.#IND00
62462234833,-1.#IND00,-1.#IND00,-1.#IND00,-1.#IND00,-1.#IND00,-1.#IND00
62462232961,-1.#IND00,-1.#IND00,-1.#IND00,-1.#IND00,-1.#IND00,-1.#IND00
62462231679,-1.#IND00,-1.#IND00,-1.#IND00,-1.#IND00,-1.#IND00,-1.#IND00
62462231782,-1.#IND00,-1.#IND00,-1.#IND00,-1.#IND00,-1.#IND00,-1.#IND00
62462231529,-1.#IND00,-1.#IND00,-1.#IND00,-1.#IND00,-1.#IND00,-1.#IND00
62462229732,-1.#IND00,-1.#IND00,-1.#IND00,-1.#IND00,-1.#IND00,-1.#IND00
62462229510,-1.#IND00,-1.#IND00,-1.#IND00,-1.#IND00,-1.#IND00,-1.#IND00
62462229319,-1.#IND00,-1.#IND00,-1.#IND00,-1.#IND00,-1.#IND00,-1.#IND00
62462226475,-1.#IND00,-1.#IND00,-1.#IND00,-1.#IND00,-1.#IND00,-1.#IND00
62462226602,-1.#IND00,-1.#IND00,-1.#IND00,-1.#IND00,-1.#IND00,-1.#IND00
62462225428,-1.#IND00,-1.#IND00,-1.#IND00,-1.#IND00,-1.#IND00,-1.#IND00
62462227630,-1.#IND00,-1.#IND00,-1.#IND00,-1.#IND00,-1.#IND00,-1.#IND00
62462231414,-1.#IND00,-1.#IND00,-1.#IND00,-1.#IND00,-1.#IND00,-1.#IND00
62462232691,-1.#IND00,-1.#IND00,-1.#IND00,-1.#IND00,-1.#IND00,-1.#IND00
62462235664,-1.#IND00,-1.#IND00,-1.#IND00,-1.#IND00,-1.#IND00,-1.#IND00
62462239978,-1.#IND00,-1.#IND00,-1.#IND00,-1.#IND00,-1.#IND00,-1.#IND00
62463072245,-1.#IND00,-1.#IND00,-1.#IND00,-1.#IND00,-1.#IND00,-1.#IND00
62463075332,-1.#IND00,-1.#IND00,-1.#IND00,-1.#IND00,-1.#IND00,-1.#IND00
62463019058,-1.#IND00,-1.#IND00,-1.#IND00,-1.#IND00,-1.#IND00,-1.#IND00
62463019173,-1.#IND00,-1.#IND00,-1.#IND00,-1.#IND00,-1.#IND00,-1.#IND00
62463020936,-1.#IND00,-1.#IND00,-1.#IND00,-1.#IND00,-1.#IND00,-1.#IND00
62463019768,-1.#IND00,-1.#IND00,-1.#IND00,-1.#IND00,-1.#IND00,-1.#IND00
62463020699,-1.#IND00,-1.#IND00,-1.#IND00,-1.#IND00,-1.#IND00,-1.#IND00
62463021707,-1.#IND00,-1.#IND00,-1.#IND00,-1.#IND00,-1.#IND00,-1.#IND00
62463018993,-1.#IND00,-1.#IND00,-1.#IND00,-1.#IND00,-1.#IND00,-1.#IND00
62463021455,-1.#IND00,-1.#IND00,-1.#IND00,-1.#IND00,-1.#IND00,-1.#IND00
62463021581,-1.#IND00,-1.#IND00,-1.#IND00,-1.#IND00,-1.#IND00,-1.#IND00
62463022467,-1.#IND00,-1.#IND00,-1.#IND00,-1.#IND00,-1.#IND00,-1.#IND00
62463024844,-1.#IND00,-1.#IND00,-1.#IND00,-1.#IND00,-1.#IND00,-1.#IND00
62474204023,-1.#IND00,-1.#IND00,-1.#IND00,-1.#IND00,-1.#IND00,-1.#IND00
62474204038,-1.#IND00,-1.#IND00,-1.#IND00,-1.#IND00,-1.#IND00,-1.#IND00
62474203084,-1.#IND00,-1.#IND00,-1.#IND00,-1.#IND00,-1.#IND00,-1.#IND00
62474202046,-1.#IND00,-1.#IND00,-1.#IND00,-1.#IND00,-1.#IND00,-1.#IND00
62463023927,-1.#IND00,-1.#IND00,-1.#IND00,-1.#IND00,-1.#IND00,-1.#IND00
62463022995,-1.#IND00,-1.#IND00,-1.#IND00,-1.#IND00,-1.#IND00,-1.#IND00
62474201080,-1.#IND00,-1.#IND00,-1.#IND00,-1.#IND00,-1.#IND00,-1.#IND00
62463022936,-1.#IND00,-1.#IND00,-1.#IND00,-1.#IND00,-1.#IND00,-1.#IND00
62474202147,-1.#IND00,-1.#IND00,-1.#IND00,-1.#IND00,-1.#IND00,-1.#IND00
62474202144,-1.#IND00,-1.#IND00,-1.#IND00,-1.#IND00,-1.#IND00,-1.#IND00
62474202258,-1.#IND00,-1.#IND00,-1.#IND00,-1.#IND00,-1.#IND00,-1.#IND00
62474202354,-1.#IND00,-1.#IND00,-1.#IND00,-1.#IND00,-1.#IND00,-1.#IND00
62474202454,-1.#IND00,-1.#IND00,-1.#IND00,-1.#IND00,-1.#IND00,-1.#IND00
62474202349,-1.#IND00,-1.#IND00,-1.#IND00,-1.#IND00,-1.#IND00,-1.#IND00
62474202555,-1.#IND00,-1.#IND00,-1.#IND00,-1.#IND00,-1.#IND00,-1.#IND00
62474202540,-1.#IND00,-1.#IND00,-1.#IND00,-1.#IND00,-1.#IND00,-1.#IND00
62474202650,-1.#IND00,-1.#IND00,-1.#IND00,-1.#IND00,-1.#IND00,-1.#IND00
62474202663,-1.#IND00,-1.#IND00,-1.#IND00,-1.#IND00,-1.#IND00,-1.#IND00
62474202671,-1.#IND00,-1.#IND00,-1.#IND00,-1.#IND00,-1.#IND00,-1.#IND00
62474202679,-1.#IND00,-1.#IND00,-1.#IND00,-1.#IND00,-1.#IND00,-1.#IND00
62474204748,-1.#IND00,-1.#IND00,-1.#IND00,-1.#IND00,-1.#IND00,-1.#IND00
62474204762,-1.#IND00,-1.#IND00,-1.#IND00,-1.#IND00,-1.#IND00,-1.#IND00
62474204880,-1.#IND00,-1.#IND00,-1.#IND00,-1.#IND00,-1.#IND00,-1.#IND00
62474204795,-1.#IND00,-1.#IND00,-1.#IND00,-1.#IND00,-1.#IND00,-1.#IND00
62474204990,-1.#IND00,-1.#IND00,-1.#IND00,-1.#IND00,-1.#IND00,-1.#IND00
62474205807,-1.#IND00,-1.#IND00,-1.#IND00,-1.#IND00,-1.#IND00,-1.#IND00
62474144036,-1.#IND00,-1.#IND00,-1.#IND00,-1.#IND00,-1.#IND00,-1.#IND00
62474145010,-1.#IND00,-1.#IND00,-1.#IND00,-1.#IND00,-1.#IND00,-1.#IND00
62474203981,-1.#IND00,-1.#IND00,-1.#IND00,-1.#IND00,-1.#IND00,-1.#IND00
62474143090,-1.#IND00,-1.#IND00,-1.#IND00,-1.#IND00,-1.#IND00,-1.#IND00
62474203952,-1.#IND00,-1.#IND00,-1.#IND00,-1.#IND00,-1.#IND00,-1.#IND00
62474143060,-1.#IND00,-1.#IND00,-1.#IND00,-1.#IND00,-1.#IND00,-1.#IND00
62474202953,-1.#IND00,-1.#IND00,-1.#IND00,-1.#IND00,-1.#IND00,-1.#IND00
62474142082,-1.#IND00,-1.#IND00,-1.#IND00,-1.#IND00,-1.#IND00,-1.#IND00
62474142051,-1.#IND00,-1.#IND00,-1.#IND00,-1.#IND00,-1.#IND00,-1.#IND00
62474202972,-1.#IND00,-1.#IND00,-1.#IND00,-1.#IND00,-1.#IND00,-1.#IND00
62474203871,-1.#IND00,-1.#IND00,-1.#IND00,-1.#IND00,-1.#IND00,-1.#IND00
62474203750,-1.#IND00,-1.#IND00,-1.#IND00,-1.#IND00,-1.#IND00,-1.#IND00
62474203842,-1.#IND00,-1.#IND00,-1.#IND00,-1.#IND00,-1.#IND00,-1.#IND00
62474203781,-1.#IND00,-1.#IND00,-1.#IND00,-1.#IND00,-1.#IND00,-1.#IND00
62474203572,-1.#IND00,-1.#IND00,-1.#IND00,-1.#IND00,-1.#IND00,-1.#IND00
62474203652,-1.#IND00,-1.#IND00,-1.#IND00,-1.#IND00,-1.#IND00,-1.#IND00
62474203552,-1.#IND00,-1.#IND00,-1.#IND00,-1.#IND00,-1.#IND00,-1.#IND00
62474203681,-1.#IND00,-1.#IND00,-1.#IND00,-1.#IND00,-1.#IND00,-1.#IND00
62474204552,-1.#IND00,-1.#IND00,-1.#IND00,-1.#IND00,-1.#IND00,-1.#IND00
62474204585,-1.#IND00,-1.#IND00,-1.#IND00,-1.#IND00,-1.#IND00,-1.#IND00
62474204662,-1.#IND00,-1.#IND00,-1.#IND00,-1.#IND00,-1.#IND00,-1.#IND00
62474205503,-1.#IND00,-1.#IND00,-1.#IND00,-1.#IND00,-1.#IND00,-1.#IND00
62474206532,-1.#IND00,-1.#IND00,-1.#IND00,-1.#IND00,-1.#IND00,-1.#IND00
62474206502,-1.#IND00,-1.#IND00,-1.#IND00,-1.#IND00,-1.#IND00,-1.#IND00
62474205692,-1.#IND00,-1.#IND00,-1.#IND00,-1.#IND00,-1.#IND00,-1.#IND00
62474206706,-1.#IND00,-1.#IND00,-1.#IND00,-1.#IND00,-1.#IND00,-1.#IND00
62474205793,-1.#IND00,-1.#IND00,-1.#IND00,-1.#IND00,-1.#IND00,-1.#IND00
62474205893,-1.#IND00,-1.#IND00,-1.#IND00,-1.#IND00,-1.#IND00,-1.#IND00
62474206806,-1.#IND00,-1.#IND00,-1.#IND00,-1.#IND00,-1.#IND00,-1.#IND00
62474146040,-1.#IND00,-1.#IND00,-1.#IND00,-1.#IND00,-1.#IND00,-1.#IND00
62474206918,-1.#IND00,-1.#IND00,-1.#IND00,-1.#IND00,-1.#IND00,-1.#IND00
62474206903,-1.#IND00,-1.#IND00,-1.#IND00,-1.#IND00,-1.#IND00,-1.#IND00
62474207930,-1.#IND00,-1.#IND00,-1.#IND00,-1.#IND00,-1.#IND00,-1.#IND00
62474206990,-1.#IND00,-1.#IND00,-1.#IND00,-1.#IND00,-1.#IND00,-1.#IND00
62474147020,-1.#IND00,-1.#IND00,-1.#IND00,-1.#IND00,-1.#IND00,-1.#IND00
62474207949,-1.#IND00,-1.#IND00,-1.#IND00,-1.#IND00,-1.#IND00,-1.#IND00
62474208819,-1.#IND00,-1.#IND00,-1.#IND00,-1.#IND00,-1.#IND00,-1.#IND00
62474148010,-1.#IND00,-1.#IND00,-1.#IND00,-1.#IND00,-1.#IND00,-1.#IND00
62474206893,-1.#IND00,-1.#IND00,-1.#IND00,-1.#IND00,-1.#IND00,-1.#IND00
62474207708,-1.#IND00,-1.#IND00,-1.#IND00,-1.#IND00,-1.#IND00,-1.#IND00
62474207880,-1.#IND00,-1.#IND00,-1.#IND00,-1.#IND00,-1.#IND00,-1.#IND00
62474207559,-1.#IND00,-1.#IND00,-1.#IND00,-1.#IND00,-1.#IND00,-1.#IND00
62474206588,-1.#IND00,-1.#IND00,-1.#IND00,-1.#IND00,-1.#IND00,-1.#IND00
62474207700,-1.#IND00,-1.#IND00,-1.#IND00,-1.#IND00,-1.#IND00,-1.#IND00
62474207684,-1.#IND00,-1.#IND00,-1.#IND00,-1.#IND00,-1.#IND00,-1.#IND00
62474207629,-1.#IND00,-1.#IND00,-1.#IND00,-1.#IND00,-1.#IND00,-1.#IND00
62474207489,-1.#IND00,-1.#IND00,-1.#IND00,-1.#IND00,-1.#IND00,-1.#IND00
62474203443,-1.#IND00,-1.#IND00,-1.#IND00,-1.#IND00,-1.#IND00,-1.#IND00
62474203373,-1.#IND00,-1.#IND00,-1.#IND00,-1.#IND00,-1.#IND00,-1.#IND00
62474203472,-1.#IND00,-1.#IND00,-1.#IND00,-1.#IND00,-1.#IND00,-1.#IND00
62474203343,-1.#IND00,-1.#IND00,-1.#IND00,-1.#IND00,-1.#IND00,-1.#IND00
62474204371,-1.#IND00,-1.#IND00,-1.#IND00,-1.#IND00,-1.#IND00,-1.#IND00
62474204432,-1.#IND00,-1.#IND00,-1.#IND00,-1.#IND00,-1.#IND00,-1.#IND00
62474205305,-1.#IND00,-1.#IND00,-1.#IND00,-1.#IND00,-1.#IND00,-1.#IND00
62474204471,-1.#IND00,-1.#IND00,-1.#IND00,-1.#IND00,-1.#IND00,-1.#IND00
62474204342,-1.#IND00,-1.#IND00,-1.#IND00,-1.#IND00,-1.#IND00,-1.#IND00
62474205151,-1.#IND00,-1.#IND00,-1.#IND00,-1.#IND00,-1.#IND00,-1.#IND00
62474205022,-1.#IND00,-1.#IND00,-1.#IND00,-1.#IND00,-1.#IND00,-1.#IND00
62463026977,-1.#IND00,-1.#IND00,-1.#IND00,-1.#IND00,-1.#IND00,-1.#IND00
62463026926,-1.#IND00,-1.#IND00,-1.#IND00,-1.#IND00,-1.#IND00,-1.#IND00
62463027895,-1.#IND00,-1.#IND00,-1.#IND00,-1.#IND00,-1.#IND00,-1.#IND00
62474207056,-1.#IND00,-1.#IND00,-1.#IND00,-1.#IND00,-1.#IND00,-1.#IND00
62474208243,-1.#IND00,-1.#IND00,-1.#IND00,-1.#IND00,-1.#IND00,-1.#IND00
62474208163,-1.#IND00,-1.#IND00,-1.#IND00,-1.#IND00,-1.#IND00,-1.#IND00
62474207119,-1.#IND00,-1.#IND00,-1.#IND00,-1.#IND00,-1.#IND00,-1.#IND00
62474207263,-1.#IND00,-1.#IND00,-1.#IND00,-1.#IND00,-1.#IND00,-1.#IND00
62474211060,-1.#IND00,-1.#IND00,-1.#IND00,-1.#IND00,-1.#IND00,-1.#IND00
62463031934,-1.#IND00,-1.#IND00,-1.#IND00,-1.#IND00,-1.#IND00,-1.#IND00
62474215045,-1.#IND00,-1.#IND00,-1.#IND00,-1.#IND00,-1.#IND00,-1.#IND00
62474213353,-1.#IND00,-1.#IND00,-1.#IND00,-1.#IND00,-1.#IND00,-1.#IND00
62463030909,-1.#IND00,-1.#IND00,-1.#IND00,-1.#IND00,-1.#IND00,-1.#IND00
62474210171,-1.#IND00,-1.#IND00,-1.#IND00,-1.#IND00,-1.#IND00,-1.#IND00
62474212215,-1.#IND00,-1.#IND00,-1.#IND00,-1.#IND00,-1.#IND00,-1.#IND00
62474212387,-1.#IND00,-1.#IND00,-1.#IND00,-1.#IND00,-1.#IND00,-1.#IND00
62474211335,-1.#IND00,-1.#IND00,-1.#IND00,-1.#IND00,-1.#IND00,-1.#IND00
62474209432,-1.#IND00,-1.#IND00,-1.#IND00,-1.#IND00,-1.#IND00,-1.#IND00
62474211556,-1.#IND00,-1.#IND00,-1.#IND00,-1.#IND00,-1.#IND00,-1.#IND00
62474211641,-1.#IND00,-1.#IND00,-1.#IND00,-1.#IND00,-1.#IND00,-1.#IND00
62463032835,-1.#IND00,-1.#IND00,-1.#IND00,-1.#IND00,-1.#IND00,-1.#IND00
62463032970,-1.#IND00,-1.#IND00,-1.#IND00,-1.#IND00,-1.#IND00,-1.#IND00
62463028720,-1.#IND00,-1.#IND00,-1.#IND00,-1.#IND00,-1.#IND00,-1.#IND00
62463028401,-1.#IND00,-1.#IND00,-1.#IND00,-1.#IND00,-1.#IND00,-1.#IND00
node2101121003,-1.#IND00,-1.#IND00,-1.#IND00,-1.#IND00,-1.#IND00,-1.#IND00
node6830421011,-1.#IND00,-1.#IND00,-1.#IND00,-1.#IND00,-1.#IND00,-1.#IND00
node6830568304,-1.#IND00,-1.#IND00,-1.#IND00,-1.#IND00,-1.#IND00,-1.#IND00
node6830368302,-1.#IND00,-1.#IND00,-1.#IND00,-1.#IND00,-1.#IND00,-1.#IND00
node6830168300,-1.#IND00,-1.#IND00,-1.#IND00,-1.#IND00,-1.#IND00,-1.#IND00
node6829968298,-1.#IND00,-1.#IND00,-1.#IND00,-1.#IND00,-1.#IND00,-1.#IND00
nodeR118268299,-1.#IND00,-1.#IND00,-1.#IND00,-1.#IND00,-1.#IND00,-1.#IND00
node20944R1182,-1.#IND00,-1.#IND00,-1.#IND00,-1.#IND00,-1.#IND00,-1.#IND00
node2083720944,-1.#IND00,-1.#IND00,-1.#IND00,-1.#IND00,-1.#IND00,-1.#IND00
node2088120837,-1.#IND00,-1.#IND00,-1.#IND00,-1.#IND00,-1.#IND00,-1.#IND00
node2044520881,-1.#IND00,-1.#IND00,-1.#IND00,-1.#IND00,-1.#IND00,-1.#IND00
node2054920445,-1.#IND00,-1.#IND00,-1.#IND00,-1.#IND00,-1.#IND00,-1.#IND00
node2036920549,-1.#IND00,-1.#IND00,-1.#IND00,-1.#IND00,-1.#IND00,-1.#IND00
node2050620369,-1.#IND00,-1.#IND00,-1.#IND00,-1.#IND00,-1.#IND00,-1.#IND00
node2036720506,-1.#IND00,-1.#IND00,-1.#IND00,-1.#IND00,-1.#IND00,-1.#IND00
nodeT6246302788020367,-1.#IND00,-1.#IND00,-1.#IND00,-1.#IND00,-1.#IND00,-1.#IND00
node62463027798T62463027880,0.000000,0.000000,-1.#IND00,-1.#IND00,0.000000,0.000000
node2024820286,-1.#IND00,-1.#IND00,-1.#IND00,-1.#IND00,-1.#IND00,-1.#IND00
node2014520248,-1.#IND00,-1.#IND00,-1.#IND00,-1.#IND00,-1.#IND00,-1.#IND00
nodeT6246302460920145,-1.#IND00,-1.#IND00,-1.#IND00,-1.#IND00,-1.#IND00,-1.#IND00
nodeF894420129,-1.#IND00,-1.#IND00,0.000000,0.000000,0.000000,0.000000
node20130F8944,-1.#IND00,-1.#IND00,0.000000,0.000000,0.000000,0.000000
nodeT6246302377520130,-1.#IND00,-1.#IND00,0.000000,0.000000,0.000000,0.000000
node62463024800T62463023775,-1.#IND00,-1.#IND00,0.000000,0.000000,0.000000,0.000000
nodeT6246302267620050,-1.#IND00,-1.#IND00,-1.#IND00,-1.#IND00,-1.#IND00,-1.#IND00
node62463022720T62463022676,0.000000,0.000000,-1.#IND00,-1.#IND00,0.000000,0.000000
nodeT6246302166319663,-1.#IND00,-1.#IND00,-1.#IND00,-1.#IND00,-1.#IND00,-1.#IND00
node62463021692T62463021663,0.000000,0.000000,0.000000,0.000000,-1.#IND00,-1.#IND00
nodeT6246302067019935,-1.#IND00,-1.#IND00,-1.#IND00,-1.#IND00,-1.#IND00,-1.#IND00
node62463020586T62463020670,0.000000,0.000000,-1.#IND00,-1.#IND00,0.000000,0.000000
node1985219597,-1.#IND00,-1.#IND00,-1.#IND00,-1.#IND00,-1.#IND00,-1.#IND00
nodeT6246301941419852,-1.#IND00,-1.#IND00,-1.#IND00,-1.#IND00,-1.#IND00,-1.#IND00
node62463019437T62463019414,-1.#IND00,-1.#IND00,0.000000,0.000000,0.000000,0.000000
nodeF757319850,0.000000,0.000000,0.000000,0.000000,-1.#IND00,-1.#IND00
node19851F7573,0.000000,0.000000,0.000000,0.000000,-1.#IND00,-1.#IND00
nodeT6246301946719851,0.000000,0.000000,0.000000,0.000000,-1.#IND00,-1.#IND00
node62463019498T62463019467,0.000000,0.000000,0.000000,0.000000,-1.#IND00,-1.#IND00
nodeF794419848,0.000000,0.000000,0.000000,0.000000,-1.#IND00,-1.#IND00
node19849F7944,0.000000,0.000000,0.000000,0.000000,-1.#IND00,-1.#IND00
node1959219849,0.000000,0.000000,0.000000,0.000000,-1.#IND00,-1.#IND00
node1996419592,0.000000,0.000000,0.000000,0.000000,-1.#IND00,-1.#IND00
nodeT6246302228919964,0.000000,0.000000,0.000000,0.000000,-1.#IND00,-1.#IND00
node62463022298T62463022289,0.000000,0.000000,0.000000,0.000000,-1.#IND00,-1.#IND00
node2013220061,0.000000,0.000000,0.000000,0.000000,-1.#IND00,-1.#IND00
nodeT6246302425720132,0.000000,0.000000,0.000000,0.000000,-1.#IND00,-1.#IND00
node62463025237T62463024257,0.000000,0.000000,0.000000,0.000000,-1.#IND00,-1.#IND00
nodeF758219837,-1.#IND00,-1.#IND00,0.000000,0.000000,0.000000,0.000000
node19770F7582,-1.#IND00,-1.#IND00,0.000000,0.000000,0.000000,0.000000
nodeT6246301747919770,-1.#IND00,-1.#IND00,0.000000,0.000000,0.000000,0.000000
node62463018503T62463017479,-1.#IND00,-1.#IND00,0.000000,0.000000,0.000000,0.000000
nodeT6246301745119750,-1.#IND00,-1.#IND00,0.000000,0.000000,0.000000,0.000000
node62463017349T62463017451,-1.#IND00,-1.#IND00,0.000000,0.000000,0.000000,0.000000
nodeT6246301555719583,-1.#IND00,-1.#IND00,0.000000,0.000000,0.000000,0.000000
node62463016405T62463015557,-1.#IND00,-1.#IND00,0.000000,0.000000,0.000000,0.000000
nodeT6246301357619342,-1.#IND00,-1.#IND00,0.000000,0.000000,0.000000,0.000000
node62463013691T62463013576,-1.#IND00,-1.#IND00,0.000000,0.000000,0.000000,0.000000
nodeT6246301254019399,-1.#IND00,-1.#IND00,0.000000,0.000000,0.000000,0.000000
node62463012543T62463012540,-1.#IND00,-1.#IND00,0.000000,0.000000,0.000000,0.000000
node1948319584,-1.#IND00,-1.#IND00,0.000000,0.000000,0.000000,0.000000
nodeT6246301473419483,-1.#IND00,-1.#IND00,0.000000,0.000000,0.000000,0.000000
node62463014628T62463014734,-1.#IND00,-1.#IND00,0.000000,0.000000,0.000000,0.000000
nodeT6246301373719474,-1.#IND00,-1.#IND00,0.000000,0.000000,0.000000,0.000000
node62463013707T62463013737,-1.#IND00,-1.#IND00,0.000000,0.000000,0.000000,0.000000
nodeT6246301683718573,-1.#IND00,-1.#IND00,0.000000,0.000000,0.000000,0.000000
node62463016900T62463016837,-1.#IND00,-1.#IND00,0.000000,0.000000,0.000000,0.000000
nodeT6247419602319688,-1.#IND00,-1.#IND00,0.000000,0.000000,0.000000,0.000000
node62474195011T62474196023,-1.#IND00,-1.#IND00,0.000000,0.000000,0.000000,0.000000
nodeT6247419610319558,-1.#IND00,-1.#IND00,0.000000,0.000000,0.000000,0.000000
node62474195151T62474196103,-1.#IND00,-1.#IND00,0.000000,0.000000,0.000000,0.000000
nodeT6247419621319560,-1.#IND00,-1.#IND00,0.000000,0.000000,0.000000,0.000000
node62474195268T62474196213,-1.#IND00,-1.#IND00,0.000000,0.000000,0.000000,0.000000
nodeT6247419635319683,-1.#IND00,-1.#IND00,0.000000,0.000000,0.000000,0.000000
node62474196319T62474196353,-1.#IND00,-1.#IND00,0.000000,0.000000,0.000000,0.000000
...